# generated using pymatgen
data_ID_0
_symmetry_space_group_name_H-M   R-3m
_cell_length_a   9.67767334
_cell_length_b   9.67767334
_cell_length_c   5.64683438
_cell_angle_alpha   90.00000000
_cell_angle_beta   90.00000000
_cell_angle_gamma   120.00000000
_symmetry_Int_Tables_number   166
_chemical_formula_structural   Si
_cell_volume   458.012783169
_cell_formula_units_Z   24
loop_
 _symmetry_equiv_pos_site_id
 _symmetry_equiv_pos_as_xyz
  1  'x, y, z'
  2  '-x, -y, -z'
  3  '-y+1/3, x-y+2/3, z+2/3'
  4  'y, -x+y, -z'
  5  '-x+y, -x, z'
  6  'x-y+1/3, x+2/3, -z+2/3'
  7  '-x+1/3, -x+y+2/3, -z+2/3'
  8  'x, x-y, z'
  9  'y, x, -z'
  10  '-y+1/3, -x+2/3, z+2/3'
  11  'x-y, -y, -z'
  12  '-x+y, y, z'
  13  'x+1/3, y+2/3, z+2/3'
  14  '-x+1/3, -y+2/3, -z+2/3'
  15  '-y+2/3, x-y+1/3, z+1/3'
  16  'y+1/3, -x+y+2/3, -z+2/3'
  17  '-x+y+1/3, -x+2/3, z+2/3'
  18  'x-y+2/3, x+1/3, -z+1/3'
  19  '-x+2/3, -x+y+1/3, -z+1/3'
  20  'x+1/3, x-y+2/3, z+2/3'
  21  'y+1/3, x+2/3, -z+2/3'
  22  '-y+2/3, -x+1/3, z+1/3'
  23  'x-y+1/3, -y+2/3, -z+2/3'
  24  '-x+y+1/3, y+2/3, z+2/3'
  25  'x+2/3, y+1/3, z+1/3'
  26  '-x+2/3, -y+1/3, -z+1/3'
  27  '-y, x-y, z'
  28  'y+2/3, -x+y+1/3, -z+1/3'
  29  '-x+y+2/3, -x+1/3, z+1/3'
  30  'x-y, x, -z'
  31  '-x, -x+y, -z'
  32  'x+2/3, x-y+1/3, z+1/3'
  33  'y+2/3, x+1/3, -z+1/3'
  34  '-y, -x, z'
  35  'x-y+2/3, -y+1/3, -z+1/3'
  36  '-x+y+2/3, y+1/3, z+1/3'
loop_
 _atom_site_type_symbol
 _atom_site_label
 _atom_site_symmetry_multiplicity
 _atom_site_fract_x
 _atom_site_fract_y
 _atom_site_fract_z
 _atom_site_occupancy
  Si  Si1  18  0.000000  0.243180  0.500000  1
  Si  Si2  6  0.000000  0.000000  0.780608  1
# generated using pymatgen
data_ID_2
_symmetry_space_group_name_H-M   P4/mbm
_cell_length_a   5.51600533
_cell_length_b   5.51600533
_cell_length_c   5.22285212
_cell_angle_alpha   90.00000000
_cell_angle_beta   90.00000000
_cell_angle_gamma   90.00000000
_symmetry_Int_Tables_number   127
_chemical_formula_structural   Si
_cell_volume   158.912143031
_cell_formula_units_Z   8
loop_
 _symmetry_equiv_pos_site_id
 _symmetry_equiv_pos_as_xyz
  1  'x, y, z'
  2  '-x, -y, -z'
  3  '-y, x, z'
  4  'y, -x, -z'
  5  '-x, -y, z'
  6  'x, y, -z'
  7  'y, -x, z'
  8  '-y, x, -z'
  9  'x+1/2, -y+1/2, -z'
  10  '-x+1/2, y+1/2, z'
  11  '-y+1/2, -x+1/2, -z'
  12  'y+1/2, x+1/2, z'
  13  '-x+1/2, y+1/2, -z'
  14  'x+1/2, -y+1/2, z'
  15  'y+1/2, x+1/2, -z'
  16  '-y+1/2, -x+1/2, z'
loop_
 _atom_site_type_symbol
 _atom_site_label
 _atom_site_symmetry_multiplicity
 _atom_site_fract_x
 _atom_site_fract_y
 _atom_site_fract_z
 _atom_site_occupancy
  Si  Si1  4  0.000000  0.000000  0.228448  1
  Si  Si2  4  0.156612  0.343388  0.500000  1
# generated using pymatgen
data_ID_3
_symmetry_space_group_name_H-M   P4/nmm
_cell_length_a   4.98573302
_cell_length_b   4.98573302
_cell_length_c   2.55451995
_cell_angle_alpha   90.00000000
_cell_angle_beta   90.00000000
_cell_angle_gamma   90.00000000
_symmetry_Int_Tables_number   129
_chemical_formula_structural   Si
_cell_volume   63.4990660613
_cell_formula_units_Z   4
loop_
 _symmetry_equiv_pos_site_id
 _symmetry_equiv_pos_as_xyz
  1  'x, y, z'
  2  '-y+1/2, x+1/2, z'
  3  '-x, -y, z'
  4  'y+1/2, -x+1/2, z'
  5  'x+1/2, -y+1/2, -z'
  6  '-y, -x, -z'
  7  '-x+1/2, y+1/2, -z'
  8  'y, x, -z'
  9  '-x+1/2, -y+1/2, -z'
  10  'y, -x, -z'
  11  'x+1/2, y+1/2, -z'
  12  '-y, x, -z'
  13  '-x, y, z'
  14  'y+1/2, x+1/2, z'
  15  'x, -y, z'
  16  '-y+1/2, -x+1/2, z'
loop_
 _atom_site_type_symbol
 _atom_site_label
 _atom_site_symmetry_multiplicity
 _atom_site_fract_x
 _atom_site_fract_y
 _atom_site_fract_z
 _atom_site_occupancy
  Si  Si1  2  0.000000  0.000000  0.500000  1
  Si  Si2  2  0.000000  0.500000  0.649693  1
# generated using pymatgen
data_ID_5
_symmetry_space_group_name_H-M   Ibam
_cell_length_a   5.37336235
_cell_length_b   5.69966050
_cell_length_c   10.35690824
_cell_angle_alpha   90.00000000
_cell_angle_beta   90.00000000
_cell_angle_gamma   90.00000000
_symmetry_Int_Tables_number   72
_chemical_formula_structural   Si
_cell_volume   317.194205394
_cell_formula_units_Z   16
loop_
 _symmetry_equiv_pos_site_id
 _symmetry_equiv_pos_as_xyz
  1  'x, y, z'
  2  '-x, -y, -z'
  3  '-x, -y, z'
  4  'x, y, -z'
  5  'x+1/2, -y+1/2, -z'
  6  '-x, y, z+1/2'
  7  '-x+1/2, y+1/2, -z'
  8  'x, -y, z+1/2'
  9  'x+1/2, y+1/2, z+1/2'
  10  '-x+1/2, -y+1/2, -z+1/2'
  11  '-x+1/2, -y+1/2, z+1/2'
  12  'x+1/2, y+1/2, -z+1/2'
  13  'x, -y, -z+1/2'
  14  '-x+1/2, y+1/2, z'
  15  '-x, y, -z+1/2'
  16  'x+1/2, -y+1/2, z'
loop_
 _atom_site_type_symbol
 _atom_site_label
 _atom_site_symmetry_multiplicity
 _atom_site_fract_x
 _atom_site_fract_y
 _atom_site_fract_z
 _atom_site_occupancy
  Si  Si1  8  0.000000  0.500000  0.135589  1
  Si  Si2  8  0.155825  0.845439  0.000000  1
# generated using pymatgen
data_ID_6
_symmetry_space_group_name_H-M   Im-3m
_cell_length_a   3.07480423
_cell_length_b   3.07480423
_cell_length_c   3.07480423
_cell_angle_alpha   90.00000000
_cell_angle_beta   90.00000000
_cell_angle_gamma   90.00000000
_symmetry_Int_Tables_number   229
_chemical_formula_structural   Si
_cell_volume   29.0704937361
_cell_formula_units_Z   2
loop_
 _symmetry_equiv_pos_site_id
 _symmetry_equiv_pos_as_xyz
  1  'x, y, z'
  2  '-x, -y, -z'
  3  'x, -z, y'
  4  '-x, z, -y'
  5  'x, -y, -z'
  6  '-x, y, z'
  7  'x, z, -y'
  8  '-x, -z, y'
  9  '-x, -y, z'
  10  'x, y, -z'
  11  '-x, z, y'
  12  'x, -z, -y'
  13  '-x, y, -z'
  14  'x, -y, z'
  15  '-x, -z, -y'
  16  'x, z, y'
  17  'y, -z, -x'
  18  '-y, z, x'
  19  '-z, -y, -x'
  20  'z, y, x'
  21  '-y, z, -x'
  22  'y, -z, x'
  23  'z, y, -x'
  24  '-z, -y, x'
  25  '-y, -z, x'
  26  'y, z, -x'
  27  'z, -y, x'
  28  '-z, y, -x'
  29  'y, z, x'
  30  '-y, -z, -x'
  31  '-z, y, x'
  32  'z, -y, -x'
  33  '-z, x, -y'
  34  'z, -x, y'
  35  '-y, x, z'
  36  'y, -x, -z'
  37  'z, x, y'
  38  '-z, -x, -y'
  39  'y, x, -z'
  40  '-y, -x, z'
  41  '-z, -x, y'
  42  'z, x, -y'
  43  '-y, -x, -z'
  44  'y, x, z'
  45  'z, -x, -y'
  46  '-z, x, y'
  47  'y, -x, z'
  48  '-y, x, -z'
  49  'x+1/2, y+1/2, z+1/2'
  50  '-x+1/2, -y+1/2, -z+1/2'
  51  'x+1/2, -z+1/2, y+1/2'
  52  '-x+1/2, z+1/2, -y+1/2'
  53  'x+1/2, -y+1/2, -z+1/2'
  54  '-x+1/2, y+1/2, z+1/2'
  55  'x+1/2, z+1/2, -y+1/2'
  56  '-x+1/2, -z+1/2, y+1/2'
  57  '-x+1/2, -y+1/2, z+1/2'
  58  'x+1/2, y+1/2, -z+1/2'
  59  '-x+1/2, z+1/2, y+1/2'
  60  'x+1/2, -z+1/2, -y+1/2'
  61  '-x+1/2, y+1/2, -z+1/2'
  62  'x+1/2, -y+1/2, z+1/2'
  63  '-x+1/2, -z+1/2, -y+1/2'
  64  'x+1/2, z+1/2, y+1/2'
  65  'y+1/2, -z+1/2, -x+1/2'
  66  '-y+1/2, z+1/2, x+1/2'
  67  '-z+1/2, -y+1/2, -x+1/2'
  68  'z+1/2, y+1/2, x+1/2'
  69  '-y+1/2, z+1/2, -x+1/2'
  70  'y+1/2, -z+1/2, x+1/2'
  71  'z+1/2, y+1/2, -x+1/2'
  72  '-z+1/2, -y+1/2, x+1/2'
  73  '-y+1/2, -z+1/2, x+1/2'
  74  'y+1/2, z+1/2, -x+1/2'
  75  'z+1/2, -y+1/2, x+1/2'
  76  '-z+1/2, y+1/2, -x+1/2'
  77  'y+1/2, z+1/2, x+1/2'
  78  '-y+1/2, -z+1/2, -x+1/2'
  79  '-z+1/2, y+1/2, x+1/2'
  80  'z+1/2, -y+1/2, -x+1/2'
  81  '-z+1/2, x+1/2, -y+1/2'
  82  'z+1/2, -x+1/2, y+1/2'
  83  '-y+1/2, x+1/2, z+1/2'
  84  'y+1/2, -x+1/2, -z+1/2'
  85  'z+1/2, x+1/2, y+1/2'
  86  '-z+1/2, -x+1/2, -y+1/2'
  87  'y+1/2, x+1/2, -z+1/2'
  88  '-y+1/2, -x+1/2, z+1/2'
  89  '-z+1/2, -x+1/2, y+1/2'
  90  'z+1/2, x+1/2, -y+1/2'
  91  '-y+1/2, -x+1/2, -z+1/2'
  92  'y+1/2, x+1/2, z+1/2'
  93  'z+1/2, -x+1/2, -y+1/2'
  94  '-z+1/2, x+1/2, y+1/2'
  95  'y+1/2, -x+1/2, z+1/2'
  96  '-y+1/2, x+1/2, -z+1/2'
loop_
 _atom_site_type_symbol
 _atom_site_label
 _atom_site_symmetry_multiplicity
 _atom_site_fract_x
 _atom_site_fract_y
 _atom_site_fract_z
 _atom_site_occupancy
  Si  Si1  2  0.000000  0.000000  0.000000  1
# generated using pymatgen
data_ID_8
_symmetry_space_group_name_H-M   P6/mmm
_cell_length_a   6.66155223
_cell_length_b   6.66155223
_cell_length_c   4.90549679
_cell_angle_alpha   90.00000000
_cell_angle_beta   90.00000000
_cell_angle_gamma   120.00000000
_symmetry_Int_Tables_number   191
_chemical_formula_structural   Si
_cell_volume   188.523069404
_cell_formula_units_Z   8
loop_
 _symmetry_equiv_pos_site_id
 _symmetry_equiv_pos_as_xyz
  1  'x, y, z'
  2  '-x, -y, -z'
  3  'x-y, x, z'
  4  '-x+y, -x, -z'
  5  '-y, x-y, z'
  6  'y, -x+y, -z'
  7  '-x, -y, z'
  8  'x, y, -z'
  9  '-x+y, -x, z'
  10  'x-y, x, -z'
  11  'y, -x+y, z'
  12  '-y, x-y, -z'
  13  '-y, -x, -z'
  14  'y, x, z'
  15  '-x, -x+y, -z'
  16  'x, x-y, z'
  17  '-x+y, y, -z'
  18  'x-y, -y, z'
  19  'y, x, -z'
  20  '-y, -x, z'
  21  'x, x-y, -z'
  22  '-x, -x+y, z'
  23  'x-y, -y, -z'
  24  '-x+y, y, z'
loop_
 _atom_site_type_symbol
 _atom_site_label
 _atom_site_symmetry_multiplicity
 _atom_site_fract_x
 _atom_site_fract_y
 _atom_site_fract_z
 _atom_site_occupancy
  Si  Si1  6  0.208128  0.416255  0.000000  1
  Si  Si2  2  0.000000  0.000000  0.255248  1
# generated using pymatgen
data_ID_7
_symmetry_space_group_name_H-M   P4/mmm
_cell_length_a   3.06520550
_cell_length_b   3.06520550
_cell_length_c   7.39247815
_cell_angle_alpha   90.00000000
_cell_angle_beta   90.00000000
_cell_angle_gamma   90.00000000
_symmetry_Int_Tables_number   123
_chemical_formula_structural   Si
_cell_volume   69.4559159402
_cell_formula_units_Z   4
loop_
 _symmetry_equiv_pos_site_id
 _symmetry_equiv_pos_as_xyz
  1  'x, y, z'
  2  '-x, -y, -z'
  3  '-y, x, z'
  4  'y, -x, -z'
  5  '-x, -y, z'
  6  'x, y, -z'
  7  'y, -x, z'
  8  '-y, x, -z'
  9  'x, -y, -z'
  10  '-x, y, z'
  11  '-y, -x, -z'
  12  'y, x, z'
  13  '-x, y, -z'
  14  'x, -y, z'
  15  'y, x, -z'
  16  '-y, -x, z'
loop_
 _atom_site_type_symbol
 _atom_site_label
 _atom_site_symmetry_multiplicity
 _atom_site_fract_x
 _atom_site_fract_y
 _atom_site_fract_z
 _atom_site_occupancy
  Si  Si1  2  0.500000  0.500000  0.324694  1
  Si  Si2  1  0.000000  0.000000  0.500000  1
  Si  Si3  1  0.500000  0.500000  0.000000  1
# generated using pymatgen
data_ID_9
_symmetry_space_group_name_H-M   P2/m
_cell_length_a   5.04307871
_cell_length_b   6.93177966
_cell_length_c   6.67978681
_cell_angle_alpha   90.00000000
_cell_angle_beta   100.67253661
_cell_angle_gamma   90.00000000
_symmetry_Int_Tables_number   10
_chemical_formula_structural   Si
_cell_volume   229.469408328
_cell_formula_units_Z   8
loop_
 _symmetry_equiv_pos_site_id
 _symmetry_equiv_pos_as_xyz
  1  'x, y, z'
  2  '-x, -y, -z'
  3  '-x, y, -z'
  4  'x, -y, z'
loop_
 _atom_site_type_symbol
 _atom_site_label
 _atom_site_symmetry_multiplicity
 _atom_site_fract_x
 _atom_site_fract_y
 _atom_site_fract_z
 _atom_site_occupancy
  Si  Si1  2  0.000000  0.159711  0.000000  1
  Si  Si2  2  0.165809  0.500000  0.663301  1
  Si  Si3  2  0.335646  0.500000  0.338222  1
  Si  Si4  1  0.000000  0.500000  0.000000  1
  Si  Si5  1  0.500000  0.500000  0.000000  1
# generated using pymatgen
data_ID_10
_symmetry_space_group_name_H-M   P6_3mc
_cell_length_a   5.84764244
_cell_length_b   5.84764244
_cell_length_c   8.58633605
_cell_angle_alpha   90.00000000
_cell_angle_beta   90.00000000
_cell_angle_gamma   120.00000000
_symmetry_Int_Tables_number   186
_chemical_formula_structural   Si
_cell_volume   254.272932425
_cell_formula_units_Z   8
loop_
 _symmetry_equiv_pos_site_id
 _symmetry_equiv_pos_as_xyz
  1  'x, y, z'
  2  'y, -x+y, z+1/2'
  3  '-x+y, -x, z'
  4  '-x, -y, z+1/2'
  5  '-y, x-y, z'
  6  'x-y, x, z+1/2'
  7  'x-y, -y, z+1/2'
  8  'x, x-y, z'
  9  'y, x, z+1/2'
  10  '-x+y, y, z'
  11  '-x, -x+y, z+1/2'
  12  '-y, -x, z'
loop_
 _atom_site_type_symbol
 _atom_site_label
 _atom_site_symmetry_multiplicity
 _atom_site_fract_x
 _atom_site_fract_y
 _atom_site_fract_z
 _atom_site_occupancy
  Si  Si1  6  0.128286  0.256571  0.574813  1
  Si  Si2  2  0.333333  0.666667  0.696281  1
# generated using pymatgen
data_ID_12
_symmetry_space_group_name_H-M   Pm-3m
_cell_length_a   2.53113573
_cell_length_b   2.53113573
_cell_length_c   2.53113573
_cell_angle_alpha   90.00000000
_cell_angle_beta   90.00000000
_cell_angle_gamma   90.00000000
_symmetry_Int_Tables_number   221
_chemical_formula_structural   Si
_cell_volume   16.2160958546
_cell_formula_units_Z   1
loop_
 _symmetry_equiv_pos_site_id
 _symmetry_equiv_pos_as_xyz
  1  'x, y, z'
  2  '-x, -y, -z'
  3  '-y, x, z'
  4  'y, -x, -z'
  5  '-x, -y, z'
  6  'x, y, -z'
  7  'y, -x, z'
  8  '-y, x, -z'
  9  'x, -y, -z'
  10  '-x, y, z'
  11  '-y, -x, -z'
  12  'y, x, z'
  13  '-x, y, -z'
  14  'x, -y, z'
  15  'y, x, -z'
  16  '-y, -x, z'
  17  'z, x, y'
  18  '-z, -x, -y'
  19  'z, -y, x'
  20  '-z, y, -x'
  21  'z, -x, -y'
  22  '-z, x, y'
  23  'z, y, -x'
  24  '-z, -y, x'
  25  '-z, x, -y'
  26  'z, -x, y'
  27  '-z, -y, -x'
  28  'z, y, x'
  29  '-z, -x, y'
  30  'z, x, -y'
  31  '-z, y, x'
  32  'z, -y, -x'
  33  'y, z, x'
  34  '-y, -z, -x'
  35  'x, z, -y'
  36  '-x, -z, y'
  37  '-y, z, -x'
  38  'y, -z, x'
  39  '-x, z, y'
  40  'x, -z, -y'
  41  '-y, -z, x'
  42  'y, z, -x'
  43  '-x, -z, -y'
  44  'x, z, y'
  45  'y, -z, -x'
  46  '-y, z, x'
  47  'x, -z, y'
  48  '-x, z, -y'
loop_
 _atom_site_type_symbol
 _atom_site_label
 _atom_site_symmetry_multiplicity
 _atom_site_fract_x
 _atom_site_fract_y
 _atom_site_fract_z
 _atom_site_occupancy
  Si  Si1  1  0.500000  0.500000  0.500000  1
# generated using pymatgen
data_ID_13
_symmetry_space_group_name_H-M   P4/mmm
_cell_length_a   5.43699167
_cell_length_b   5.43699167
_cell_length_c   8.89416877
_cell_angle_alpha   90.00000000
_cell_angle_beta   90.00000000
_cell_angle_gamma   90.00000000
_symmetry_Int_Tables_number   123
_chemical_formula_structural   Si
_cell_volume   262.919441345
_cell_formula_units_Z   4
loop_
 _symmetry_equiv_pos_site_id
 _symmetry_equiv_pos_as_xyz
  1  'x, y, z'
  2  '-x, -y, -z'
  3  '-y, x, z'
  4  'y, -x, -z'
  5  '-x, -y, z'
  6  'x, y, -z'
  7  'y, -x, z'
  8  '-y, x, -z'
  9  'x, -y, -z'
  10  '-x, y, z'
  11  '-y, -x, -z'
  12  'y, x, z'
  13  '-x, y, -z'
  14  'x, -y, z'
  15  'y, x, -z'
  16  '-y, -x, z'
loop_
 _atom_site_type_symbol
 _atom_site_label
 _atom_site_symmetry_multiplicity
 _atom_site_fract_x
 _atom_site_fract_y
 _atom_site_fract_z
 _atom_site_occupancy
  Si  Si1  4  0.203709  0.500000  0.000000  1
# generated using pymatgen
data_ID_14
_symmetry_space_group_name_H-M   P4/mmm
_cell_length_a   5.43694104
_cell_length_b   5.43694104
_cell_length_c   8.89303095
_cell_angle_alpha   90.00000000
_cell_angle_beta   90.00000000
_cell_angle_gamma   90.00000000
_symmetry_Int_Tables_number   123
_chemical_formula_structural   Si
_cell_volume   262.880910983
_cell_formula_units_Z   4
loop_
 _symmetry_equiv_pos_site_id
 _symmetry_equiv_pos_as_xyz
  1  'x, y, z'
  2  '-x, -y, -z'
  3  '-y, x, z'
  4  'y, -x, -z'
  5  '-x, -y, z'
  6  'x, y, -z'
  7  'y, -x, z'
  8  '-y, x, -z'
  9  'x, -y, -z'
  10  '-x, y, z'
  11  '-y, -x, -z'
  12  'y, x, z'
  13  '-x, y, -z'
  14  'x, -y, z'
  15  'y, x, -z'
  16  '-y, -x, z'
loop_
 _atom_site_type_symbol
 _atom_site_label
 _atom_site_symmetry_multiplicity
 _atom_site_fract_x
 _atom_site_fract_y
 _atom_site_fract_z
 _atom_site_occupancy
  Si  Si1  4  0.203710  0.500000  0.000000  1
# generated using pymatgen
data_ID_15
_symmetry_space_group_name_H-M   R-3m
_cell_length_a   8.09170097
_cell_length_b   8.09170097
_cell_length_c   7.57794267
_cell_angle_alpha   90.00000000
_cell_angle_beta   90.00000000
_cell_angle_gamma   120.00000000
_symmetry_Int_Tables_number   166
_chemical_formula_structural   Si
_cell_volume   429.696283108
_cell_formula_units_Z   24
loop_
 _symmetry_equiv_pos_site_id
 _symmetry_equiv_pos_as_xyz
  1  'x, y, z'
  2  '-x+2/3, -y+1/3, -z+1/3'
  3  '-y+1/3, x-y+2/3, z+2/3'
  4  'y+1/3, -x+y+2/3, -z+2/3'
  5  '-x+y+2/3, -x+1/3, z+1/3'
  6  'x-y+1/3, x+2/3, -z+2/3'
  7  'x-y+1/3, -y+2/3, -z+2/3'
  8  '-x+y+2/3, y+1/3, z+1/3'
  9  '-x+1/3, -x+y+2/3, -z+2/3'
  10  'x+1/3, x-y+2/3, z+2/3'
  11  'y+2/3, x+1/3, -z+1/3'
  12  '-y+1/3, -x+2/3, z+2/3'
  13  'x+2/3, y+1/3, z+1/3'
  14  '-x+1/3, -y+2/3, -z+2/3'
  15  '-y, x-y, z'
  16  'y, -x+y, -z'
  17  '-x+y+1/3, -x+2/3, z+2/3'
  18  'x-y, x, -z'
  19  'x-y, -y, -z'
  20  '-x+y+1/3, y+2/3, z+2/3'
  21  '-x, -x+y, -z'
  22  'x, x-y, z'
  23  'y+1/3, x+2/3, -z+2/3'
  24  '-y, -x, z'
  25  'x+1/3, y+2/3, z+2/3'
  26  '-x, -y, -z'
  27  '-y+2/3, x-y+1/3, z+1/3'
  28  'y+2/3, -x+y+1/3, -z+1/3'
  29  '-x+y, -x, z'
  30  'x-y+2/3, x+1/3, -z+1/3'
  31  'x-y+2/3, -y+1/3, -z+1/3'
  32  '-x+y, y, z'
  33  '-x+2/3, -x+y+1/3, -z+1/3'
  34  'x+2/3, x-y+1/3, z+1/3'
  35  'y, x, -z'
  36  '-y+2/3, -x+1/3, z+1/3'
loop_
 _atom_site_type_symbol
 _atom_site_label
 _atom_site_symmetry_multiplicity
 _atom_site_fract_x
 _atom_site_fract_y
 _atom_site_fract_z
 _atom_site_occupancy
  Si  Si1  9  0.000000  0.500000  0.500000  1
  Si  Si2  9  0.000000  0.500000  0.000000  1
  Si  Si3  6  0.000000  0.000000  0.154635  1
# generated using pymatgen
data_ID_16
_symmetry_space_group_name_H-M   Pm-3m
_cell_length_a   2.53262350
_cell_length_b   2.53262350
_cell_length_c   2.53262350
_cell_angle_alpha   90.00000000
_cell_angle_beta   90.00000000
_cell_angle_gamma   90.00000000
_symmetry_Int_Tables_number   221
_chemical_formula_structural   Si
_cell_volume   16.2447076202
_cell_formula_units_Z   1
loop_
 _symmetry_equiv_pos_site_id
 _symmetry_equiv_pos_as_xyz
  1  'x, y, z'
  2  '-x, -y, -z'
  3  '-y, x, z'
  4  'y, -x, -z'
  5  '-x, -y, z'
  6  'x, y, -z'
  7  'y, -x, z'
  8  '-y, x, -z'
  9  'x, -y, -z'
  10  '-x, y, z'
  11  '-y, -x, -z'
  12  'y, x, z'
  13  '-x, y, -z'
  14  'x, -y, z'
  15  'y, x, -z'
  16  '-y, -x, z'
  17  'z, x, y'
  18  '-z, -x, -y'
  19  'z, -y, x'
  20  '-z, y, -x'
  21  'z, -x, -y'
  22  '-z, x, y'
  23  'z, y, -x'
  24  '-z, -y, x'
  25  '-z, x, -y'
  26  'z, -x, y'
  27  '-z, -y, -x'
  28  'z, y, x'
  29  '-z, -x, y'
  30  'z, x, -y'
  31  '-z, y, x'
  32  'z, -y, -x'
  33  'y, z, x'
  34  '-y, -z, -x'
  35  'x, z, -y'
  36  '-x, -z, y'
  37  '-y, z, -x'
  38  'y, -z, x'
  39  '-x, z, y'
  40  'x, -z, -y'
  41  '-y, -z, x'
  42  'y, z, -x'
  43  '-x, -z, -y'
  44  'x, z, y'
  45  'y, -z, -x'
  46  '-y, z, x'
  47  'x, -z, y'
  48  '-x, z, -y'
loop_
 _atom_site_type_symbol
 _atom_site_label
 _atom_site_symmetry_multiplicity
 _atom_site_fract_x
 _atom_site_fract_y
 _atom_site_fract_z
 _atom_site_occupancy
  Si  Si1  1  0.000000  0.000000  0.000000  1
# generated using pymatgen
data_ID_17
_symmetry_space_group_name_H-M   P4/mmm
_cell_length_a   5.78627275
_cell_length_b   5.78627275
_cell_length_c   2.64493743
_cell_angle_alpha   90.00000000
_cell_angle_beta   90.00000000
_cell_angle_gamma   90.00000000
_symmetry_Int_Tables_number   123
_chemical_formula_structural   Si
_cell_volume   88.5550238771
_cell_formula_units_Z   4
loop_
 _symmetry_equiv_pos_site_id
 _symmetry_equiv_pos_as_xyz
  1  'x, y, z'
  2  '-x, -y, -z'
  3  '-y, x, z'
  4  'y, -x, -z'
  5  '-x, -y, z'
  6  'x, y, -z'
  7  'y, -x, z'
  8  '-y, x, -z'
  9  'x, -y, -z'
  10  '-x, y, z'
  11  '-y, -x, -z'
  12  'y, x, z'
  13  '-x, y, -z'
  14  'x, -y, z'
  15  'y, x, -z'
  16  '-y, -x, z'
loop_
 _atom_site_type_symbol
 _atom_site_label
 _atom_site_symmetry_multiplicity
 _atom_site_fract_x
 _atom_site_fract_y
 _atom_site_fract_z
 _atom_site_occupancy
  Si  Si1  4  0.000000  0.294742  0.000000  1
# generated using pymatgen
data_ID_18
_symmetry_space_group_name_H-M   Ia-3d
_cell_length_a   6.55439370
_cell_length_b   6.55439370
_cell_length_c   6.55439370
_cell_angle_alpha   90.00000000
_cell_angle_beta   90.00000000
_cell_angle_gamma   90.00000000
_symmetry_Int_Tables_number   230
_chemical_formula_structural   Si
_cell_volume   281.577257141
_cell_formula_units_Z   16
loop_
 _symmetry_equiv_pos_site_id
 _symmetry_equiv_pos_as_xyz
  1  'x, y, z'
  2  '-x, -y, -z'
  3  'x+1/4, -z+1/4, y+3/4'
  4  '-x+1/4, z+1/4, -y+3/4'
  5  'x+1/2, -y+1/2, -z'
  6  '-x, y, z+1/2'
  7  'x+3/4, z+1/4, -y+1/4'
  8  '-x+1/4, -z+3/4, y+3/4'
  9  '-x, -y+1/2, z'
  10  'x, y+1/2, -z'
  11  '-x+3/4, z+1/4, y+3/4'
  12  'x+1/4, -z+3/4, -y+1/4'
  13  '-x+1/2, y, -z'
  14  'x, -y+1/2, z+1/2'
  15  '-x+3/4, -z+3/4, -y+3/4'
  16  'x+1/4, z+1/4, y+1/4'
  17  'y, -z, -x+1/2'
  18  '-y, z, x+1/2'
  19  '-z+1/4, -y+1/4, -x+1/4'
  20  'z+1/4, y+1/4, x+1/4'
  21  '-y, z+1/2, -x+1/2'
  22  'y, -z+1/2, x+1/2'
  23  'z+3/4, y+1/4, -x+1/4'
  24  '-z+1/4, -y+3/4, x+3/4'
  25  '-y, -z+1/2, x'
  26  'y, z+1/2, -x'
  27  'z+1/4, -y+1/4, x+3/4'
  28  '-z+1/4, y+1/4, -x+3/4'
  29  'y, z, x'
  30  '-y, -z, -x'
  31  '-z+3/4, y+1/4, x+3/4'
  32  'z+3/4, -y+1/4, -x+3/4'
  33  '-z+1/2, x, -y'
  34  'z+1/2, -x, y'
  35  '-y+3/4, x+1/4, z+3/4'
  36  'y+3/4, -x+1/4, -z+3/4'
  37  'z, x, y'
  38  '-z+1/2, -x+1/2, -y+1/2'
  39  'y+1/4, x+3/4, -z+3/4'
  40  '-y+1/4, -x+3/4, z+3/4'
  41  '-z, -x+1/2, y'
  42  'z, x+1/2, -y'
  43  '-y+1/4, -x+1/4, -z+1/4'
  44  'y+3/4, x+3/4, z+3/4'
  45  'z, -x, -y+1/2'
  46  '-z+1/2, x+1/2, y'
  47  'y+1/4, -x+1/4, z+3/4'
  48  '-y+1/4, x+1/4, -z+3/4'
  49  'x+1/2, y+1/2, z+1/2'
  50  '-x+1/2, -y+1/2, -z+1/2'
  51  'x+3/4, -z+3/4, y+1/4'
  52  '-x+3/4, z+3/4, -y+1/4'
  53  'x, -y, -z+1/2'
  54  '-x+1/2, y+1/2, z'
  55  'x+1/4, z+3/4, -y+3/4'
  56  '-x+3/4, -z+1/4, y+1/4'
  57  '-x+1/2, -y, z+1/2'
  58  'x+1/2, y, -z+1/2'
  59  '-x+1/4, z+3/4, y+1/4'
  60  'x+3/4, -z+1/4, -y+3/4'
  61  '-x, y+1/2, -z+1/2'
  62  'x+1/2, -y, z'
  63  '-x+1/4, -z+1/4, -y+1/4'
  64  'x+3/4, z+3/4, y+3/4'
  65  'y+1/2, -z+1/2, -x'
  66  '-y+1/2, z+1/2, x'
  67  '-z+3/4, -y+3/4, -x+3/4'
  68  'z+3/4, y+3/4, x+3/4'
  69  '-y+1/2, z, -x'
  70  'y+1/2, -z, x'
  71  'z+1/4, y+3/4, -x+3/4'
  72  '-z+3/4, -y+1/4, x+1/4'
  73  '-y+1/2, -z, x+1/2'
  74  'y+1/2, z, -x+1/2'
  75  'z+3/4, -y+3/4, x+1/4'
  76  '-z+3/4, y+3/4, -x+1/4'
  77  'y+1/2, z+1/2, x+1/2'
  78  '-y+1/2, -z+1/2, -x+1/2'
  79  '-z+1/4, y+3/4, x+1/4'
  80  'z+1/4, -y+3/4, -x+1/4'
  81  '-z, x+1/2, -y+1/2'
  82  'z, -x+1/2, y+1/2'
  83  '-y+1/4, x+3/4, z+1/4'
  84  'y+1/4, -x+3/4, -z+1/4'
  85  'z+1/2, x+1/2, y+1/2'
  86  '-z, -x, -y'
  87  'y+3/4, x+1/4, -z+1/4'
  88  '-y+3/4, -x+1/4, z+1/4'
  89  '-z+1/2, -x, y+1/2'
  90  'z+1/2, x, -y+1/2'
  91  '-y+3/4, -x+3/4, -z+3/4'
  92  'y+1/4, x+1/4, z+1/4'
  93  'z+1/2, -x+1/2, -y'
  94  '-z, x, y+1/2'
  95  'y+3/4, -x+3/4, z+1/4'
  96  '-y+3/4, x+3/4, -z+1/4'
loop_
 _atom_site_type_symbol
 _atom_site_label
 _atom_site_symmetry_multiplicity
 _atom_site_fract_x
 _atom_site_fract_y
 _atom_site_fract_z
 _atom_site_occupancy
  Si  Si1  16  0.125000  0.125000  0.125000  1
# generated using pymatgen
data_ID_19
_symmetry_space_group_name_H-M   P6_3/mmc
_cell_length_a   4.99149607
_cell_length_b   4.99149607
_cell_length_c   8.00463005
_cell_angle_alpha   90.00000000
_cell_angle_beta   90.00000000
_cell_angle_gamma   120.00000000
_symmetry_Int_Tables_number   194
_chemical_formula_structural   Si
_cell_volume   172.716314835
_cell_formula_units_Z   8
loop_
 _symmetry_equiv_pos_site_id
 _symmetry_equiv_pos_as_xyz
  1  'x, y, z'
  2  '-x, -y, -z'
  3  'x-y, x, z+1/2'
  4  '-x+y, -x, -z+1/2'
  5  '-y, x-y, z'
  6  'y, -x+y, -z'
  7  '-x, -y, z+1/2'
  8  'x, y, -z+1/2'
  9  '-x+y, -x, z'
  10  'x-y, x, -z'
  11  'y, -x+y, z+1/2'
  12  '-y, x-y, -z+1/2'
  13  '-y, -x, -z+1/2'
  14  'y, x, z+1/2'
  15  '-x, -x+y, -z'
  16  'x, x-y, z'
  17  '-x+y, y, -z+1/2'
  18  'x-y, -y, z+1/2'
  19  'y, x, -z'
  20  '-y, -x, z'
  21  'x, x-y, -z+1/2'
  22  '-x, -x+y, z+1/2'
  23  'x-y, -y, -z'
  24  '-x+y, y, z'
loop_
 _atom_site_type_symbol
 _atom_site_label
 _atom_site_symmetry_multiplicity
 _atom_site_fract_x
 _atom_site_fract_y
 _atom_site_fract_z
 _atom_site_occupancy
  Si  Si1  6  0.000000  0.500000  0.000000  1
  Si  Si2  2  0.333333  0.666667  0.750000  1
# generated using pymatgen
data_ID_20
_symmetry_space_group_name_H-M   P-1
_cell_length_a   4.96274897
_cell_length_b   5.03295001
_cell_length_c   6.92886064
_cell_angle_alpha   72.68846180
_cell_angle_beta   70.27288934
_cell_angle_gamma   70.60366047
_symmetry_Int_Tables_number   2
_chemical_formula_structural   Si
_cell_volume   150.271206662
_cell_formula_units_Z   8
loop_
 _symmetry_equiv_pos_site_id
 _symmetry_equiv_pos_as_xyz
  1  'x, y, z'
  2  '-x, -y, -z'
loop_
 _atom_site_type_symbol
 _atom_site_label
 _atom_site_symmetry_multiplicity
 _atom_site_fract_x
 _atom_site_fract_y
 _atom_site_fract_z
 _atom_site_occupancy
  Si  Si1  2  0.006234  0.854133  0.182396  1
  Si  Si2  2  0.479194  0.119502  0.324415  1
  Si  Si3  1  0.000000  0.000000  0.500000  1
  Si  Si4  1  0.000000  0.500000  0.000000  1
  Si  Si5  1  0.500000  0.000000  0.000000  1
  Si  Si6  1  0.500000  0.500000  0.000000  1
# generated using pymatgen
data_ID_21
_symmetry_space_group_name_H-M   P-1
_cell_length_a   5.08602810
_cell_length_b   5.13282083
_cell_length_c   5.42221547
_cell_angle_alpha   95.76665320
_cell_angle_beta   112.58903481
_cell_angle_gamma   99.37379650
_symmetry_Int_Tables_number   2
_chemical_formula_structural   Si
_cell_volume   126.864116099
_cell_formula_units_Z   8
loop_
 _symmetry_equiv_pos_site_id
 _symmetry_equiv_pos_as_xyz
  1  'x, y, z'
  2  '-x, -y, -z'
loop_
 _atom_site_type_symbol
 _atom_site_label
 _atom_site_symmetry_multiplicity
 _atom_site_fract_x
 _atom_site_fract_y
 _atom_site_fract_z
 _atom_site_occupancy
  Si  Si1  2  0.246393  0.067526  0.180470  1
  Si  Si2  2  0.467065  0.258421  0.875958  1
  Si  Si3  1  0.000000  0.000000  0.500000  1
  Si  Si4  1  0.000000  0.500000  0.000000  1
  Si  Si5  1  0.000000  0.500000  0.500000  1
  Si  Si6  1  0.500000  0.500000  0.500000  1
# generated using pymatgen
data_ID_22
_symmetry_space_group_name_H-M   P4/mmm
_cell_length_a   2.51492755
_cell_length_b   2.51492755
_cell_length_c   9.00229237
_cell_angle_alpha   90.00000000
_cell_angle_beta   90.00000000
_cell_angle_gamma   90.00000000
_symmetry_Int_Tables_number   123
_chemical_formula_structural   Si
_cell_volume   56.9382440386
_cell_formula_units_Z   2
loop_
 _symmetry_equiv_pos_site_id
 _symmetry_equiv_pos_as_xyz
  1  'x, y, z'
  2  '-x, -y, -z'
  3  '-y, x, z'
  4  'y, -x, -z'
  5  '-x, -y, z'
  6  'x, y, -z'
  7  'y, -x, z'
  8  '-y, x, -z'
  9  'x, -y, -z'
  10  '-x, y, z'
  11  '-y, -x, -z'
  12  'y, x, z'
  13  '-x, y, -z'
  14  'x, -y, z'
  15  'y, x, -z'
  16  '-y, -x, z'
loop_
 _atom_site_type_symbol
 _atom_site_label
 _atom_site_symmetry_multiplicity
 _atom_site_fract_x
 _atom_site_fract_y
 _atom_site_fract_z
 _atom_site_occupancy
  Si  Si1  2  0.500000  0.500000  0.132225  1
# generated using pymatgen
data_ID_24
_symmetry_space_group_name_H-M   Pm-3m
_cell_length_a   2.53222451
_cell_length_b   2.53222451
_cell_length_c   2.53222451
_cell_angle_alpha   90.00000000
_cell_angle_beta   90.00000000
_cell_angle_gamma   90.00000000
_symmetry_Int_Tables_number   221
_chemical_formula_structural   Si
_cell_volume   16.2370311091
_cell_formula_units_Z   1
loop_
 _symmetry_equiv_pos_site_id
 _symmetry_equiv_pos_as_xyz
  1  'x, y, z'
  2  '-x, -y, -z'
  3  '-y, x, z'
  4  'y, -x, -z'
  5  '-x, -y, z'
  6  'x, y, -z'
  7  'y, -x, z'
  8  '-y, x, -z'
  9  'x, -y, -z'
  10  '-x, y, z'
  11  '-y, -x, -z'
  12  'y, x, z'
  13  '-x, y, -z'
  14  'x, -y, z'
  15  'y, x, -z'
  16  '-y, -x, z'
  17  'z, x, y'
  18  '-z, -x, -y'
  19  'z, -y, x'
  20  '-z, y, -x'
  21  'z, -x, -y'
  22  '-z, x, y'
  23  'z, y, -x'
  24  '-z, -y, x'
  25  '-z, x, -y'
  26  'z, -x, y'
  27  '-z, -y, -x'
  28  'z, y, x'
  29  '-z, -x, y'
  30  'z, x, -y'
  31  '-z, y, x'
  32  'z, -y, -x'
  33  'y, z, x'
  34  '-y, -z, -x'
  35  'x, z, -y'
  36  '-x, -z, y'
  37  '-y, z, -x'
  38  'y, -z, x'
  39  '-x, z, y'
  40  'x, -z, -y'
  41  '-y, -z, x'
  42  'y, z, -x'
  43  '-x, -z, -y'
  44  'x, z, y'
  45  'y, -z, -x'
  46  '-y, z, x'
  47  'x, -z, y'
  48  '-x, z, -y'
loop_
 _atom_site_type_symbol
 _atom_site_label
 _atom_site_symmetry_multiplicity
 _atom_site_fract_x
 _atom_site_fract_y
 _atom_site_fract_z
 _atom_site_occupancy
  Si  Si1  1  0.000000  0.000000  0.000000  1
# generated using pymatgen
data_ID_25
_symmetry_space_group_name_H-M   Pm-3m
_cell_length_a   2.53222451
_cell_length_b   2.53222451
_cell_length_c   2.53222451
_cell_angle_alpha   90.00000000
_cell_angle_beta   90.00000000
_cell_angle_gamma   90.00000000
_symmetry_Int_Tables_number   221
_chemical_formula_structural   Si
_cell_volume   16.2370311091
_cell_formula_units_Z   1
loop_
 _symmetry_equiv_pos_site_id
 _symmetry_equiv_pos_as_xyz
  1  'x, y, z'
  2  '-x, -y, -z'
  3  '-y, x, z'
  4  'y, -x, -z'
  5  '-x, -y, z'
  6  'x, y, -z'
  7  'y, -x, z'
  8  '-y, x, -z'
  9  'x, -y, -z'
  10  '-x, y, z'
  11  '-y, -x, -z'
  12  'y, x, z'
  13  '-x, y, -z'
  14  'x, -y, z'
  15  'y, x, -z'
  16  '-y, -x, z'
  17  'z, x, y'
  18  '-z, -x, -y'
  19  'z, -y, x'
  20  '-z, y, -x'
  21  'z, -x, -y'
  22  '-z, x, y'
  23  'z, y, -x'
  24  '-z, -y, x'
  25  '-z, x, -y'
  26  'z, -x, y'
  27  '-z, -y, -x'
  28  'z, y, x'
  29  '-z, -x, y'
  30  'z, x, -y'
  31  '-z, y, x'
  32  'z, -y, -x'
  33  'y, z, x'
  34  '-y, -z, -x'
  35  'x, z, -y'
  36  '-x, -z, y'
  37  '-y, z, -x'
  38  'y, -z, x'
  39  '-x, z, y'
  40  'x, -z, -y'
  41  '-y, -z, x'
  42  'y, z, -x'
  43  '-x, -z, -y'
  44  'x, z, y'
  45  'y, -z, -x'
  46  '-y, z, x'
  47  'x, -z, y'
  48  '-x, z, -y'
loop_
 _atom_site_type_symbol
 _atom_site_label
 _atom_site_symmetry_multiplicity
 _atom_site_fract_x
 _atom_site_fract_y
 _atom_site_fract_z
 _atom_site_occupancy
  Si  Si1  1  0.000000  0.000000  0.000000  1
# generated using pymatgen
data_ID_26
_symmetry_space_group_name_H-M   Amm2
_cell_length_a   5.26089565
_cell_length_b   5.53775309
_cell_length_c   5.87401550
_cell_angle_alpha   90.00000000
_cell_angle_beta   90.00000000
_cell_angle_gamma   90.00000000
_symmetry_Int_Tables_number   38
_chemical_formula_structural   Si
_cell_volume   171.130872284
_cell_formula_units_Z   8
loop_
 _symmetry_equiv_pos_site_id
 _symmetry_equiv_pos_as_xyz
  1  'x, y, z'
  2  '-x, -y+1/2, z+1/2'
  3  '-x, y, z'
  4  'x, -y+1/2, z+1/2'
  5  'x, y+1/2, z+1/2'
  6  '-x, -y, z'
  7  '-x, y+1/2, z+1/2'
  8  'x, -y, z'
loop_
 _atom_site_type_symbol
 _atom_site_label
 _atom_site_symmetry_multiplicity
 _atom_site_fract_x
 _atom_site_fract_y
 _atom_site_fract_z
 _atom_site_occupancy
  Si  Si1  4  0.000000  0.211370  0.335100  1
  Si  Si2  4  0.277814  0.000000  0.652180  1
# generated using pymatgen
data_ID_27
_symmetry_space_group_name_H-M   P6/mmm
_cell_length_a   2.62792853
_cell_length_b   2.62792853
_cell_length_c   2.51380661
_cell_angle_alpha   90.00000000
_cell_angle_beta   90.00000000
_cell_angle_gamma   120.00000000
_symmetry_Int_Tables_number   191
_chemical_formula_structural   Si
_cell_volume   15.0345209334
_cell_formula_units_Z   1
loop_
 _symmetry_equiv_pos_site_id
 _symmetry_equiv_pos_as_xyz
  1  'x, y, z'
  2  '-x, -y, -z'
  3  'y, -x+y, z'
  4  '-y, x-y, -z'
  5  '-x+y, -x, z'
  6  'x-y, x, -z'
  7  '-x, -y, z'
  8  'x, y, -z'
  9  '-y, x-y, z'
  10  'y, -x+y, -z'
  11  'x-y, x, z'
  12  '-x+y, -x, -z'
  13  '-y, -x, -z'
  14  'y, x, z'
  15  'x-y, -y, -z'
  16  '-x+y, y, z'
  17  'x, x-y, -z'
  18  '-x, -x+y, z'
  19  'y, x, -z'
  20  '-y, -x, z'
  21  '-x+y, y, -z'
  22  'x-y, -y, z'
  23  '-x, -x+y, -z'
  24  'x, x-y, z'
loop_
 _atom_site_type_symbol
 _atom_site_label
 _atom_site_symmetry_multiplicity
 _atom_site_fract_x
 _atom_site_fract_y
 _atom_site_fract_z
 _atom_site_occupancy
  Si  Si1  1  0.000000  0.000000  0.000000  1
# generated using pymatgen
data_ID_28
_symmetry_space_group_name_H-M   Pm-3m
_cell_length_a   2.53312693
_cell_length_b   2.53312693
_cell_length_c   2.53312693
_cell_angle_alpha   90.00000000
_cell_angle_beta   90.00000000
_cell_angle_gamma   90.00000000
_symmetry_Int_Tables_number   221
_chemical_formula_structural   Si
_cell_volume   16.254396804
_cell_formula_units_Z   1
loop_
 _symmetry_equiv_pos_site_id
 _symmetry_equiv_pos_as_xyz
  1  'x, y, z'
  2  '-x, -y, -z'
  3  '-y, x, z'
  4  'y, -x, -z'
  5  '-x, -y, z'
  6  'x, y, -z'
  7  'y, -x, z'
  8  '-y, x, -z'
  9  'x, -y, -z'
  10  '-x, y, z'
  11  '-y, -x, -z'
  12  'y, x, z'
  13  '-x, y, -z'
  14  'x, -y, z'
  15  'y, x, -z'
  16  '-y, -x, z'
  17  'z, x, y'
  18  '-z, -x, -y'
  19  'z, -y, x'
  20  '-z, y, -x'
  21  'z, -x, -y'
  22  '-z, x, y'
  23  'z, y, -x'
  24  '-z, -y, x'
  25  '-z, x, -y'
  26  'z, -x, y'
  27  '-z, -y, -x'
  28  'z, y, x'
  29  '-z, -x, y'
  30  'z, x, -y'
  31  '-z, y, x'
  32  'z, -y, -x'
  33  'y, z, x'
  34  '-y, -z, -x'
  35  'x, z, -y'
  36  '-x, -z, y'
  37  '-y, z, -x'
  38  'y, -z, x'
  39  '-x, z, y'
  40  'x, -z, -y'
  41  '-y, -z, x'
  42  'y, z, -x'
  43  '-x, -z, -y'
  44  'x, z, y'
  45  'y, -z, -x'
  46  '-y, z, x'
  47  'x, -z, y'
  48  '-x, z, -y'
loop_
 _atom_site_type_symbol
 _atom_site_label
 _atom_site_symmetry_multiplicity
 _atom_site_fract_x
 _atom_site_fract_y
 _atom_site_fract_z
 _atom_site_occupancy
  Si  Si1  1  0.500000  0.500000  0.500000  1
# generated using pymatgen
data_ID_29
_symmetry_space_group_name_H-M   P6/mmm
_cell_length_a   7.31036725
_cell_length_b   7.31036725
_cell_length_c   4.67374642
_cell_angle_alpha   90.00000000
_cell_angle_beta   90.00000000
_cell_angle_gamma   120.00000000
_symmetry_Int_Tables_number   191
_chemical_formula_structural   Si
_cell_volume   216.308789554
_cell_formula_units_Z   8
loop_
 _symmetry_equiv_pos_site_id
 _symmetry_equiv_pos_as_xyz
  1  'x, y, z'
  2  '-x, -y, -z'
  3  'y, -x+y, z'
  4  '-y, x-y, -z'
  5  '-x+y, -x, z'
  6  'x-y, x, -z'
  7  '-x, -y, z'
  8  'x, y, -z'
  9  '-y, x-y, z'
  10  'y, -x+y, -z'
  11  'x-y, x, z'
  12  '-x+y, -x, -z'
  13  '-y, -x, -z'
  14  'y, x, z'
  15  'x-y, -y, -z'
  16  '-x+y, y, z'
  17  'x, x-y, -z'
  18  '-x, -x+y, z'
  19  'y, x, -z'
  20  '-y, -x, z'
  21  '-x+y, y, -z'
  22  'x-y, -y, z'
  23  '-x, -x+y, -z'
  24  'x, x-y, z'
loop_
 _atom_site_type_symbol
 _atom_site_label
 _atom_site_symmetry_multiplicity
 _atom_site_fract_x
 _atom_site_fract_y
 _atom_site_fract_z
 _atom_site_occupancy
  Si  Si1  6  0.000000  0.333103  0.000000  1
  Si  Si2  1  0.000000  0.000000  0.000000  1
  Si  Si3  1  0.000000  0.000000  0.500000  1
# generated using pymatgen
data_ID_30
_symmetry_space_group_name_H-M   P4_322
_cell_length_a   4.87426913
_cell_length_b   4.87426913
_cell_length_c   5.62267797
_cell_angle_alpha   90.00000000
_cell_angle_beta   90.00000000
_cell_angle_gamma   90.00000000
_symmetry_Int_Tables_number   95
_chemical_formula_structural   Si
_cell_volume   133.586392213
_cell_formula_units_Z   8
loop_
 _symmetry_equiv_pos_site_id
 _symmetry_equiv_pos_as_xyz
  1  'x, y, z'
  2  '-y, x, z+3/4'
  3  '-x, -y, z+1/2'
  4  'y, -x, z+1/4'
  5  'x, -y, -z+1/2'
  6  '-y, -x, -z+3/4'
  7  '-x, y, -z'
  8  'y, x, -z+1/4'
loop_
 _atom_site_type_symbol
 _atom_site_label
 _atom_site_symmetry_multiplicity
 _atom_site_fract_x
 _atom_site_fract_y
 _atom_site_fract_z
 _atom_site_occupancy
  Si  Si1  4  0.208457  0.208457  0.625000  1
  Si  Si2  4  0.211916  0.500000  0.250000  1
# generated using pymatgen
data_ID_32
_symmetry_space_group_name_H-M   P6/mmm
_cell_length_a   2.62553413
_cell_length_b   2.62553413
_cell_length_c   2.48446016
_cell_angle_alpha   90.00000000
_cell_angle_beta   90.00000000
_cell_angle_gamma   120.00000000
_symmetry_Int_Tables_number   191
_chemical_formula_structural   Si
_cell_volume   14.8319414855
_cell_formula_units_Z   1
loop_
 _symmetry_equiv_pos_site_id
 _symmetry_equiv_pos_as_xyz
  1  'x, y, z'
  2  '-x, -y, -z'
  3  'x-y, x, z'
  4  '-x+y, -x, -z'
  5  '-y, x-y, z'
  6  'y, -x+y, -z'
  7  '-x, -y, z'
  8  'x, y, -z'
  9  '-x+y, -x, z'
  10  'x-y, x, -z'
  11  'y, -x+y, z'
  12  '-y, x-y, -z'
  13  '-y, -x, -z'
  14  'y, x, z'
  15  '-x, -x+y, -z'
  16  'x, x-y, z'
  17  '-x+y, y, -z'
  18  'x-y, -y, z'
  19  'y, x, -z'
  20  '-y, -x, z'
  21  'x, x-y, -z'
  22  '-x, -x+y, z'
  23  'x-y, -y, -z'
  24  '-x+y, y, z'
loop_
 _atom_site_type_symbol
 _atom_site_label
 _atom_site_symmetry_multiplicity
 _atom_site_fract_x
 _atom_site_fract_y
 _atom_site_fract_z
 _atom_site_occupancy
  Si  Si1  1  0.000000  0.000000  0.500000  1
# generated using pymatgen
data_ID_33
_symmetry_space_group_name_H-M   P6_3/mcm
_cell_length_a   5.24461487
_cell_length_b   5.24461487
_cell_length_c   4.99201586
_cell_angle_alpha   90.00000000
_cell_angle_beta   90.00000000
_cell_angle_gamma   120.00000000
_symmetry_Int_Tables_number   193
_chemical_formula_structural   Si
_cell_volume   118.914220237
_cell_formula_units_Z   8
loop_
 _symmetry_equiv_pos_site_id
 _symmetry_equiv_pos_as_xyz
  1  'x, y, z'
  2  '-x, -y, -z'
  3  'y, -x+y, z+1/2'
  4  '-y, x-y, -z+1/2'
  5  '-x+y, -x, z'
  6  'x-y, x, -z'
  7  '-x, -y, z+1/2'
  8  'x, y, -z+1/2'
  9  '-y, x-y, z'
  10  'y, -x+y, -z'
  11  'x-y, x, z+1/2'
  12  '-x+y, -x, -z+1/2'
  13  '-y, -x, -z'
  14  'y, x, z'
  15  'x-y, -y, -z+1/2'
  16  '-x+y, y, z+1/2'
  17  'x, x-y, -z'
  18  '-x, -x+y, z'
  19  'y, x, -z+1/2'
  20  '-y, -x, z+1/2'
  21  '-x+y, y, -z'
  22  'x-y, -y, z'
  23  '-x, -x+y, -z+1/2'
  24  'x, x-y, z+1/2'
loop_
 _atom_site_type_symbol
 _atom_site_label
 _atom_site_symmetry_multiplicity
 _atom_site_fract_x
 _atom_site_fract_y
 _atom_site_fract_z
 _atom_site_occupancy
  Si  Si1  6  0.000000  0.440949  0.250000  1
  Si  Si2  2  0.000000  0.000000  0.000000  1
# generated using pymatgen
data_ID_34
_symmetry_space_group_name_H-M   P6/mmm
_cell_length_a   2.63434271
_cell_length_b   2.63434271
_cell_length_c   2.48226418
_cell_angle_alpha   90.00000000
_cell_angle_beta   90.00000000
_cell_angle_gamma   120.00000000
_symmetry_Int_Tables_number   191
_chemical_formula_structural   Si
_cell_volume   14.9184320155
_cell_formula_units_Z   1
loop_
 _symmetry_equiv_pos_site_id
 _symmetry_equiv_pos_as_xyz
  1  'x, y, z'
  2  '-x, -y, -z'
  3  'x-y, x, z'
  4  '-x+y, -x, -z'
  5  '-y, x-y, z'
  6  'y, -x+y, -z'
  7  '-x, -y, z'
  8  'x, y, -z'
  9  '-x+y, -x, z'
  10  'x-y, x, -z'
  11  'y, -x+y, z'
  12  '-y, x-y, -z'
  13  '-y, -x, -z'
  14  'y, x, z'
  15  '-x, -x+y, -z'
  16  'x, x-y, z'
  17  '-x+y, y, -z'
  18  'x-y, -y, z'
  19  'y, x, -z'
  20  '-y, -x, z'
  21  'x, x-y, -z'
  22  '-x, -x+y, z'
  23  'x-y, -y, -z'
  24  '-x+y, y, z'
loop_
 _atom_site_type_symbol
 _atom_site_label
 _atom_site_symmetry_multiplicity
 _atom_site_fract_x
 _atom_site_fract_y
 _atom_site_fract_z
 _atom_site_occupancy
  Si  Si1  1  0.000000  0.000000  0.500000  1
# generated using pymatgen
data_ID_35
_symmetry_space_group_name_H-M   Im-3m
_cell_length_a   3.07857096
_cell_length_b   3.07857096
_cell_length_c   3.07857096
_cell_angle_alpha   90.00000000
_cell_angle_beta   90.00000000
_cell_angle_gamma   90.00000000
_symmetry_Int_Tables_number   229
_chemical_formula_structural   Si
_cell_volume   29.177461584
_cell_formula_units_Z   2
loop_
 _symmetry_equiv_pos_site_id
 _symmetry_equiv_pos_as_xyz
  1  'x, y, z'
  2  '-x, -y, -z'
  3  'x, -z, y'
  4  '-x, z, -y'
  5  'x, -y, -z'
  6  '-x, y, z'
  7  'x, z, -y'
  8  '-x, -z, y'
  9  '-x, -y, z'
  10  'x, y, -z'
  11  '-x, z, y'
  12  'x, -z, -y'
  13  '-x, y, -z'
  14  'x, -y, z'
  15  '-x, -z, -y'
  16  'x, z, y'
  17  'y, -z, -x'
  18  '-y, z, x'
  19  '-z, -y, -x'
  20  'z, y, x'
  21  '-y, z, -x'
  22  'y, -z, x'
  23  'z, y, -x'
  24  '-z, -y, x'
  25  '-y, -z, x'
  26  'y, z, -x'
  27  'z, -y, x'
  28  '-z, y, -x'
  29  'y, z, x'
  30  '-y, -z, -x'
  31  '-z, y, x'
  32  'z, -y, -x'
  33  '-z, x, -y'
  34  'z, -x, y'
  35  '-y, x, z'
  36  'y, -x, -z'
  37  'z, x, y'
  38  '-z, -x, -y'
  39  'y, x, -z'
  40  '-y, -x, z'
  41  '-z, -x, y'
  42  'z, x, -y'
  43  '-y, -x, -z'
  44  'y, x, z'
  45  'z, -x, -y'
  46  '-z, x, y'
  47  'y, -x, z'
  48  '-y, x, -z'
  49  'x+1/2, y+1/2, z+1/2'
  50  '-x+1/2, -y+1/2, -z+1/2'
  51  'x+1/2, -z+1/2, y+1/2'
  52  '-x+1/2, z+1/2, -y+1/2'
  53  'x+1/2, -y+1/2, -z+1/2'
  54  '-x+1/2, y+1/2, z+1/2'
  55  'x+1/2, z+1/2, -y+1/2'
  56  '-x+1/2, -z+1/2, y+1/2'
  57  '-x+1/2, -y+1/2, z+1/2'
  58  'x+1/2, y+1/2, -z+1/2'
  59  '-x+1/2, z+1/2, y+1/2'
  60  'x+1/2, -z+1/2, -y+1/2'
  61  '-x+1/2, y+1/2, -z+1/2'
  62  'x+1/2, -y+1/2, z+1/2'
  63  '-x+1/2, -z+1/2, -y+1/2'
  64  'x+1/2, z+1/2, y+1/2'
  65  'y+1/2, -z+1/2, -x+1/2'
  66  '-y+1/2, z+1/2, x+1/2'
  67  '-z+1/2, -y+1/2, -x+1/2'
  68  'z+1/2, y+1/2, x+1/2'
  69  '-y+1/2, z+1/2, -x+1/2'
  70  'y+1/2, -z+1/2, x+1/2'
  71  'z+1/2, y+1/2, -x+1/2'
  72  '-z+1/2, -y+1/2, x+1/2'
  73  '-y+1/2, -z+1/2, x+1/2'
  74  'y+1/2, z+1/2, -x+1/2'
  75  'z+1/2, -y+1/2, x+1/2'
  76  '-z+1/2, y+1/2, -x+1/2'
  77  'y+1/2, z+1/2, x+1/2'
  78  '-y+1/2, -z+1/2, -x+1/2'
  79  '-z+1/2, y+1/2, x+1/2'
  80  'z+1/2, -y+1/2, -x+1/2'
  81  '-z+1/2, x+1/2, -y+1/2'
  82  'z+1/2, -x+1/2, y+1/2'
  83  '-y+1/2, x+1/2, z+1/2'
  84  'y+1/2, -x+1/2, -z+1/2'
  85  'z+1/2, x+1/2, y+1/2'
  86  '-z+1/2, -x+1/2, -y+1/2'
  87  'y+1/2, x+1/2, -z+1/2'
  88  '-y+1/2, -x+1/2, z+1/2'
  89  '-z+1/2, -x+1/2, y+1/2'
  90  'z+1/2, x+1/2, -y+1/2'
  91  '-y+1/2, -x+1/2, -z+1/2'
  92  'y+1/2, x+1/2, z+1/2'
  93  'z+1/2, -x+1/2, -y+1/2'
  94  '-z+1/2, x+1/2, y+1/2'
  95  'y+1/2, -x+1/2, z+1/2'
  96  '-y+1/2, x+1/2, -z+1/2'
loop_
 _atom_site_type_symbol
 _atom_site_label
 _atom_site_symmetry_multiplicity
 _atom_site_fract_x
 _atom_site_fract_y
 _atom_site_fract_z
 _atom_site_occupancy
  Si  Si1  2  0.000000  0.000000  0.000000  1
# generated using pymatgen
data_ID_36
_symmetry_space_group_name_H-M   Pm-3m
_cell_length_a   2.53160976
_cell_length_b   2.53160976
_cell_length_c   2.53160976
_cell_angle_alpha   90.00000000
_cell_angle_beta   90.00000000
_cell_angle_gamma   90.00000000
_symmetry_Int_Tables_number   221
_chemical_formula_structural   Si
_cell_volume   16.2252083267
_cell_formula_units_Z   1
loop_
 _symmetry_equiv_pos_site_id
 _symmetry_equiv_pos_as_xyz
  1  'x, y, z'
  2  '-x, -y, -z'
  3  '-y, x, z'
  4  'y, -x, -z'
  5  '-x, -y, z'
  6  'x, y, -z'
  7  'y, -x, z'
  8  '-y, x, -z'
  9  'x, -y, -z'
  10  '-x, y, z'
  11  '-y, -x, -z'
  12  'y, x, z'
  13  '-x, y, -z'
  14  'x, -y, z'
  15  'y, x, -z'
  16  '-y, -x, z'
  17  'z, x, y'
  18  '-z, -x, -y'
  19  'z, -y, x'
  20  '-z, y, -x'
  21  'z, -x, -y'
  22  '-z, x, y'
  23  'z, y, -x'
  24  '-z, -y, x'
  25  '-z, x, -y'
  26  'z, -x, y'
  27  '-z, -y, -x'
  28  'z, y, x'
  29  '-z, -x, y'
  30  'z, x, -y'
  31  '-z, y, x'
  32  'z, -y, -x'
  33  'y, z, x'
  34  '-y, -z, -x'
  35  'x, z, -y'
  36  '-x, -z, y'
  37  '-y, z, -x'
  38  'y, -z, x'
  39  '-x, z, y'
  40  'x, -z, -y'
  41  '-y, -z, x'
  42  'y, z, -x'
  43  '-x, -z, -y'
  44  'x, z, y'
  45  'y, -z, -x'
  46  '-y, z, x'
  47  'x, -z, y'
  48  '-x, z, -y'
loop_
 _atom_site_type_symbol
 _atom_site_label
 _atom_site_symmetry_multiplicity
 _atom_site_fract_x
 _atom_site_fract_y
 _atom_site_fract_z
 _atom_site_occupancy
  Si  Si1  1  0.500000  0.500000  0.500000  1
# generated using pymatgen
data_ID_41
_symmetry_space_group_name_H-M   Pm-3m
_cell_length_a   4.64700581
_cell_length_b   4.64700581
_cell_length_c   4.64700581
_cell_angle_alpha   90.00000000
_cell_angle_beta   90.00000000
_cell_angle_gamma   90.00000000
_symmetry_Int_Tables_number   221
_chemical_formula_structural   Si
_cell_volume   100.350524534
_cell_formula_units_Z   4
loop_
 _symmetry_equiv_pos_site_id
 _symmetry_equiv_pos_as_xyz
  1  'x, y, z'
  2  '-x, -y, -z'
  3  '-y, x, z'
  4  'y, -x, -z'
  5  '-x, -y, z'
  6  'x, y, -z'
  7  'y, -x, z'
  8  '-y, x, -z'
  9  'x, -y, -z'
  10  '-x, y, z'
  11  '-y, -x, -z'
  12  'y, x, z'
  13  '-x, y, -z'
  14  'x, -y, z'
  15  'y, x, -z'
  16  '-y, -x, z'
  17  'z, x, y'
  18  '-z, -x, -y'
  19  'z, -y, x'
  20  '-z, y, -x'
  21  'z, -x, -y'
  22  '-z, x, y'
  23  'z, y, -x'
  24  '-z, -y, x'
  25  '-z, x, -y'
  26  'z, -x, y'
  27  '-z, -y, -x'
  28  'z, y, x'
  29  '-z, -x, y'
  30  'z, x, -y'
  31  '-z, y, x'
  32  'z, -y, -x'
  33  'y, z, x'
  34  '-y, -z, -x'
  35  'x, z, -y'
  36  '-x, -z, y'
  37  '-y, z, -x'
  38  'y, -z, x'
  39  '-x, z, y'
  40  'x, -z, -y'
  41  '-y, -z, x'
  42  'y, z, -x'
  43  '-x, -z, -y'
  44  'x, z, y'
  45  'y, -z, -x'
  46  '-y, z, x'
  47  'x, -z, y'
  48  '-x, z, -y'
loop_
 _atom_site_type_symbol
 _atom_site_label
 _atom_site_symmetry_multiplicity
 _atom_site_fract_x
 _atom_site_fract_y
 _atom_site_fract_z
 _atom_site_occupancy
  Si  Si1  3  0.000000  0.000000  0.500000  1
  Si  Si2  1  0.000000  0.000000  0.000000  1
# generated using pymatgen
data_ID_38
_symmetry_space_group_name_H-M   Pm-3m
_cell_length_a   2.53257980
_cell_length_b   2.53257980
_cell_length_c   2.53257980
_cell_angle_alpha   90.00000000
_cell_angle_beta   90.00000000
_cell_angle_gamma   90.00000000
_symmetry_Int_Tables_number   221
_chemical_formula_structural   Si
_cell_volume   16.2438667116
_cell_formula_units_Z   1
loop_
 _symmetry_equiv_pos_site_id
 _symmetry_equiv_pos_as_xyz
  1  'x, y, z'
  2  '-x, -y, -z'
  3  '-y, x, z'
  4  'y, -x, -z'
  5  '-x, -y, z'
  6  'x, y, -z'
  7  'y, -x, z'
  8  '-y, x, -z'
  9  'x, -y, -z'
  10  '-x, y, z'
  11  '-y, -x, -z'
  12  'y, x, z'
  13  '-x, y, -z'
  14  'x, -y, z'
  15  'y, x, -z'
  16  '-y, -x, z'
  17  'z, x, y'
  18  '-z, -x, -y'
  19  'z, -y, x'
  20  '-z, y, -x'
  21  'z, -x, -y'
  22  '-z, x, y'
  23  'z, y, -x'
  24  '-z, -y, x'
  25  '-z, x, -y'
  26  'z, -x, y'
  27  '-z, -y, -x'
  28  'z, y, x'
  29  '-z, -x, y'
  30  'z, x, -y'
  31  '-z, y, x'
  32  'z, -y, -x'
  33  'y, z, x'
  34  '-y, -z, -x'
  35  'x, z, -y'
  36  '-x, -z, y'
  37  '-y, z, -x'
  38  'y, -z, x'
  39  '-x, z, y'
  40  'x, -z, -y'
  41  '-y, -z, x'
  42  'y, z, -x'
  43  '-x, -z, -y'
  44  'x, z, y'
  45  'y, -z, -x'
  46  '-y, z, x'
  47  'x, -z, y'
  48  '-x, z, -y'
loop_
 _atom_site_type_symbol
 _atom_site_label
 _atom_site_symmetry_multiplicity
 _atom_site_fract_x
 _atom_site_fract_y
 _atom_site_fract_z
 _atom_site_occupancy
  Si  Si1  1  0.500000  0.500000  0.500000  1
# generated using pymatgen
data_ID_40
_symmetry_space_group_name_H-M   Pm-3m
_cell_length_a   4.64700581
_cell_length_b   4.64700581
_cell_length_c   4.64700581
_cell_angle_alpha   90.00000000
_cell_angle_beta   90.00000000
_cell_angle_gamma   90.00000000
_symmetry_Int_Tables_number   221
_chemical_formula_structural   Si
_cell_volume   100.350524534
_cell_formula_units_Z   4
loop_
 _symmetry_equiv_pos_site_id
 _symmetry_equiv_pos_as_xyz
  1  'x, y, z'
  2  '-x, -y, -z'
  3  '-y, x, z'
  4  'y, -x, -z'
  5  '-x, -y, z'
  6  'x, y, -z'
  7  'y, -x, z'
  8  '-y, x, -z'
  9  'x, -y, -z'
  10  '-x, y, z'
  11  '-y, -x, -z'
  12  'y, x, z'
  13  '-x, y, -z'
  14  'x, -y, z'
  15  'y, x, -z'
  16  '-y, -x, z'
  17  'z, x, y'
  18  '-z, -x, -y'
  19  'z, -y, x'
  20  '-z, y, -x'
  21  'z, -x, -y'
  22  '-z, x, y'
  23  'z, y, -x'
  24  '-z, -y, x'
  25  '-z, x, -y'
  26  'z, -x, y'
  27  '-z, -y, -x'
  28  'z, y, x'
  29  '-z, -x, y'
  30  'z, x, -y'
  31  '-z, y, x'
  32  'z, -y, -x'
  33  'y, z, x'
  34  '-y, -z, -x'
  35  'x, z, -y'
  36  '-x, -z, y'
  37  '-y, z, -x'
  38  'y, -z, x'
  39  '-x, z, y'
  40  'x, -z, -y'
  41  '-y, -z, x'
  42  'y, z, -x'
  43  '-x, -z, -y'
  44  'x, z, y'
  45  'y, -z, -x'
  46  '-y, z, x'
  47  'x, -z, y'
  48  '-x, z, -y'
loop_
 _atom_site_type_symbol
 _atom_site_label
 _atom_site_symmetry_multiplicity
 _atom_site_fract_x
 _atom_site_fract_y
 _atom_site_fract_z
 _atom_site_occupancy
  Si  Si1  3  0.000000  0.000000  0.500000  1
  Si  Si2  1  0.000000  0.000000  0.000000  1
# generated using pymatgen
data_ID_43
_symmetry_space_group_name_H-M   P4/mmm
_cell_length_a   3.96413462
_cell_length_b   3.96413462
_cell_length_c   5.28775134
_cell_angle_alpha   90.00000000
_cell_angle_beta   90.00000000
_cell_angle_gamma   90.00000000
_symmetry_Int_Tables_number   123
_chemical_formula_structural   Si
_cell_volume   83.0936454375
_cell_formula_units_Z   4
loop_
 _symmetry_equiv_pos_site_id
 _symmetry_equiv_pos_as_xyz
  1  'x, y, z'
  2  '-x, -y, -z'
  3  '-y, x, z'
  4  'y, -x, -z'
  5  '-x, -y, z'
  6  'x, y, -z'
  7  'y, -x, z'
  8  '-y, x, -z'
  9  'x, -y, -z'
  10  '-x, y, z'
  11  '-y, -x, -z'
  12  'y, x, z'
  13  '-x, y, -z'
  14  'x, -y, z'
  15  'y, x, -z'
  16  '-y, -x, z'
loop_
 _atom_site_type_symbol
 _atom_site_label
 _atom_site_symmetry_multiplicity
 _atom_site_fract_x
 _atom_site_fract_y
 _atom_site_fract_z
 _atom_site_occupancy
  Si  Si1  2  0.000000  0.500000  0.000000  1
  Si  Si2  2  0.500000  0.500000  0.281692  1
# generated using pymatgen
data_ID_44
_symmetry_space_group_name_H-M   Pm-3m
_cell_length_a   2.53296119
_cell_length_b   2.53296119
_cell_length_c   2.53296119
_cell_angle_alpha   90.00000000
_cell_angle_beta   90.00000000
_cell_angle_gamma   90.00000000
_symmetry_Int_Tables_number   221
_chemical_formula_structural   Si
_cell_volume   16.2512064444
_cell_formula_units_Z   1
loop_
 _symmetry_equiv_pos_site_id
 _symmetry_equiv_pos_as_xyz
  1  'x, y, z'
  2  '-x, -y, -z'
  3  '-y, x, z'
  4  'y, -x, -z'
  5  '-x, -y, z'
  6  'x, y, -z'
  7  'y, -x, z'
  8  '-y, x, -z'
  9  'x, -y, -z'
  10  '-x, y, z'
  11  '-y, -x, -z'
  12  'y, x, z'
  13  '-x, y, -z'
  14  'x, -y, z'
  15  'y, x, -z'
  16  '-y, -x, z'
  17  'z, x, y'
  18  '-z, -x, -y'
  19  'z, -y, x'
  20  '-z, y, -x'
  21  'z, -x, -y'
  22  '-z, x, y'
  23  'z, y, -x'
  24  '-z, -y, x'
  25  '-z, x, -y'
  26  'z, -x, y'
  27  '-z, -y, -x'
  28  'z, y, x'
  29  '-z, -x, y'
  30  'z, x, -y'
  31  '-z, y, x'
  32  'z, -y, -x'
  33  'y, z, x'
  34  '-y, -z, -x'
  35  'x, z, -y'
  36  '-x, -z, y'
  37  '-y, z, -x'
  38  'y, -z, x'
  39  '-x, z, y'
  40  'x, -z, -y'
  41  '-y, -z, x'
  42  'y, z, -x'
  43  '-x, -z, -y'
  44  'x, z, y'
  45  'y, -z, -x'
  46  '-y, z, x'
  47  'x, -z, y'
  48  '-x, z, -y'
loop_
 _atom_site_type_symbol
 _atom_site_label
 _atom_site_symmetry_multiplicity
 _atom_site_fract_x
 _atom_site_fract_y
 _atom_site_fract_z
 _atom_site_occupancy
  Si  Si1  1  0.000000  0.000000  0.000000  1
# generated using pymatgen
data_ID_45
_symmetry_space_group_name_H-M   Fd-3m
_cell_length_a   5.46605308
_cell_length_b   5.46605308
_cell_length_c   5.46605308
_cell_angle_alpha   90.00000000
_cell_angle_beta   90.00000000
_cell_angle_gamma   90.00000000
_symmetry_Int_Tables_number   227
_chemical_formula_structural   Si
_cell_volume   163.313292801
_cell_formula_units_Z   8
loop_
 _symmetry_equiv_pos_site_id
 _symmetry_equiv_pos_as_xyz
  1  'x, y, z'
  2  'z+1/4, y+3/4, -x+3/4'
  3  '-x, y, -z'
  4  '-z+1/4, y+3/4, x+3/4'
  5  'x, -y, -z'
  6  'z+1/4, -y+3/4, x+3/4'
  7  '-x+1/2, -y, z+1/2'
  8  '-z+1/4, -y+3/4, -x+3/4'
  9  'y, -z, -x'
  10  'y+1/4, x+3/4, -z+3/4'
  11  'y, z, x'
  12  'y+1/4, -x+3/4, z+3/4'
  13  '-y, z, -x'
  14  '-y+1/4, -x+3/4, -z+3/4'
  15  '-y, -z, x'
  16  '-y+1/4, x+3/4, z+3/4'
  17  '-z, x, -y'
  18  'x+1/4, z+3/4, -y+3/4'
  19  'z, -x+1/2, -y+1/2'
  20  '-x+1/4, -z+3/4, -y+3/4'
  21  'z, x, y'
  22  '-x+1/4, z+3/4, y+3/4'
  23  '-z+1/2, -x+1/2, y'
  24  'x+1/4, -z+3/4, y+3/4'
  25  '-x+1/4, -y+3/4, -z+3/4'
  26  '-z, -y, x'
  27  'x+1/4, -y+3/4, z+3/4'
  28  'z, -y, -x'
  29  '-x+1/4, y+3/4, z+3/4'
  30  '-z, y+1/2, -x+1/2'
  31  'x+1/4, y+3/4, -z+3/4'
  32  'z, y, x'
  33  '-y+1/4, z+3/4, x+3/4'
  34  '-y, -x, z'
  35  '-y+1/4, -z+3/4, -x+3/4'
  36  '-y, x, -z'
  37  'y+1/4, -z+3/4, x+3/4'
  38  'y+1/2, x+1/2, z'
  39  'y+1/4, z+3/4, -x+3/4'
  40  'y, -x, -z'
  41  'z+1/4, -x+3/4, y+3/4'
  42  '-x, -z, y'
  43  '-z+1/4, x+3/4, y+3/4'
  44  'x, z, y'
  45  '-z+1/4, -x+3/4, -y+3/4'
  46  'x+1/2, -z, -y+1/2'
  47  'z+1/4, x+3/4, -y+3/4'
  48  '-x, z, -y'
  49  'x+1/2, y+1/2, z'
  50  'z+3/4, y+1/4, -x+3/4'
  51  '-x+1/2, y+1/2, -z'
  52  '-z+3/4, y+1/4, x+3/4'
  53  'x+1/2, -y+1/2, -z'
  54  'z+3/4, -y+1/4, x+3/4'
  55  '-x, -y+1/2, z+1/2'
  56  '-z+3/4, -y+1/4, -x+3/4'
  57  'y+1/2, -z+1/2, -x'
  58  'y+3/4, x+1/4, -z+3/4'
  59  'y+1/2, z+1/2, x'
  60  'y+3/4, -x+1/4, z+3/4'
  61  '-y+1/2, z+1/2, -x'
  62  '-y+3/4, -x+1/4, -z+3/4'
  63  '-y+1/2, -z+1/2, x'
  64  '-y+3/4, x+1/4, z+3/4'
  65  '-z+1/2, x+1/2, -y'
  66  'x+3/4, z+1/4, -y+3/4'
  67  'z+1/2, -x, -y+1/2'
  68  '-x+3/4, -z+1/4, -y+3/4'
  69  'z+1/2, x+1/2, y'
  70  '-x+3/4, z+1/4, y+3/4'
  71  '-z, -x, y'
  72  'x+3/4, -z+1/4, y+3/4'
  73  '-x+3/4, -y+1/4, -z+3/4'
  74  '-z+1/2, -y+1/2, x'
  75  'x+3/4, -y+1/4, z+3/4'
  76  'z+1/2, -y+1/2, -x'
  77  '-x+3/4, y+1/4, z+3/4'
  78  '-z+1/2, y, -x+1/2'
  79  'x+3/4, y+1/4, -z+3/4'
  80  'z+1/2, y+1/2, x'
  81  '-y+3/4, z+1/4, x+3/4'
  82  '-y+1/2, -x+1/2, z'
  83  '-y+3/4, -z+1/4, -x+3/4'
  84  '-y+1/2, x+1/2, -z'
  85  'y+3/4, -z+1/4, x+3/4'
  86  'y, x, z'
  87  'y+3/4, z+1/4, -x+3/4'
  88  'y+1/2, -x+1/2, -z'
  89  'z+3/4, -x+1/4, y+3/4'
  90  '-x+1/2, -z+1/2, y'
  91  '-z+3/4, x+1/4, y+3/4'
  92  'x+1/2, z+1/2, y'
  93  '-z+3/4, -x+1/4, -y+3/4'
  94  'x, -z+1/2, -y+1/2'
  95  'z+3/4, x+1/4, -y+3/4'
  96  '-x+1/2, z+1/2, -y'
  97  'x+1/2, y, z+1/2'
  98  'z+3/4, y+3/4, -x+1/4'
  99  '-x+1/2, y, -z+1/2'
  100  '-z+3/4, y+3/4, x+1/4'
  101  'x+1/2, -y, -z+1/2'
  102  'z+3/4, -y+3/4, x+1/4'
  103  '-x, -y, z'
  104  '-z+3/4, -y+3/4, -x+1/4'
  105  'y+1/2, -z, -x+1/2'
  106  'y+3/4, x+3/4, -z+1/4'
  107  'y+1/2, z, x+1/2'
  108  'y+3/4, -x+3/4, z+1/4'
  109  '-y+1/2, z, -x+1/2'
  110  '-y+3/4, -x+3/4, -z+1/4'
  111  '-y+1/2, -z, x+1/2'
  112  '-y+3/4, x+3/4, z+1/4'
  113  '-z+1/2, x, -y+1/2'
  114  'x+3/4, z+3/4, -y+1/4'
  115  'z+1/2, -x+1/2, -y'
  116  '-x+3/4, -z+3/4, -y+1/4'
  117  'z+1/2, x, y+1/2'
  118  '-x+3/4, z+3/4, y+1/4'
  119  '-z, -x+1/2, y+1/2'
  120  'x+3/4, -z+3/4, y+1/4'
  121  '-x+3/4, -y+3/4, -z+1/4'
  122  '-z+1/2, -y, x+1/2'
  123  'x+3/4, -y+3/4, z+1/4'
  124  'z+1/2, -y, -x+1/2'
  125  '-x+3/4, y+3/4, z+1/4'
  126  '-z+1/2, y+1/2, -x'
  127  'x+3/4, y+3/4, -z+1/4'
  128  'z+1/2, y, x+1/2'
  129  '-y+3/4, z+3/4, x+1/4'
  130  '-y+1/2, -x, z+1/2'
  131  '-y+3/4, -z+3/4, -x+1/4'
  132  '-y+1/2, x, -z+1/2'
  133  'y+3/4, -z+3/4, x+1/4'
  134  'y, x+1/2, z+1/2'
  135  'y+3/4, z+3/4, -x+1/4'
  136  'y+1/2, -x, -z+1/2'
  137  'z+3/4, -x+3/4, y+1/4'
  138  '-x+1/2, -z, y+1/2'
  139  '-z+3/4, x+3/4, y+1/4'
  140  'x+1/2, z, y+1/2'
  141  '-z+3/4, -x+3/4, -y+1/4'
  142  'x, -z, -y'
  143  'z+3/4, x+3/4, -y+1/4'
  144  '-x+1/2, z, -y+1/2'
  145  'x, y+1/2, z+1/2'
  146  'z+1/4, y+1/4, -x+1/4'
  147  '-x, y+1/2, -z+1/2'
  148  '-z+1/4, y+1/4, x+1/4'
  149  'x, -y+1/2, -z+1/2'
  150  'z+1/4, -y+1/4, x+1/4'
  151  '-x+1/2, -y+1/2, z'
  152  '-z+1/4, -y+1/4, -x+1/4'
  153  'y, -z+1/2, -x+1/2'
  154  'y+1/4, x+1/4, -z+1/4'
  155  'y, z+1/2, x+1/2'
  156  'y+1/4, -x+1/4, z+1/4'
  157  '-y, z+1/2, -x+1/2'
  158  '-y+1/4, -x+1/4, -z+1/4'
  159  '-y, -z+1/2, x+1/2'
  160  '-y+1/4, x+1/4, z+1/4'
  161  '-z, x+1/2, -y+1/2'
  162  'x+1/4, z+1/4, -y+1/4'
  163  'z, -x, -y'
  164  '-x+1/4, -z+1/4, -y+1/4'
  165  'z, x+1/2, y+1/2'
  166  '-x+1/4, z+1/4, y+1/4'
  167  '-z+1/2, -x, y+1/2'
  168  'x+1/4, -z+1/4, y+1/4'
  169  '-x+1/4, -y+1/4, -z+1/4'
  170  '-z, -y+1/2, x+1/2'
  171  'x+1/4, -y+1/4, z+1/4'
  172  'z, -y+1/2, -x+1/2'
  173  '-x+1/4, y+1/4, z+1/4'
  174  '-z, y, -x'
  175  'x+1/4, y+1/4, -z+1/4'
  176  'z, y+1/2, x+1/2'
  177  '-y+1/4, z+1/4, x+1/4'
  178  '-y, -x+1/2, z+1/2'
  179  '-y+1/4, -z+1/4, -x+1/4'
  180  '-y, x+1/2, -z+1/2'
  181  'y+1/4, -z+1/4, x+1/4'
  182  'y+1/2, x, z+1/2'
  183  'y+1/4, z+1/4, -x+1/4'
  184  'y, -x+1/2, -z+1/2'
  185  'z+1/4, -x+1/4, y+1/4'
  186  '-x, -z+1/2, y+1/2'
  187  '-z+1/4, x+1/4, y+1/4'
  188  'x, z+1/2, y+1/2'
  189  '-z+1/4, -x+1/4, -y+1/4'
  190  'x+1/2, -z+1/2, -y'
  191  'z+1/4, x+1/4, -y+1/4'
  192  '-x, z+1/2, -y+1/2'
loop_
 _atom_site_type_symbol
 _atom_site_label
 _atom_site_symmetry_multiplicity
 _atom_site_fract_x
 _atom_site_fract_y
 _atom_site_fract_z
 _atom_site_occupancy
  Si  Si1  8  0.000000  0.000000  0.500000  1
# generated using pymatgen
data_ID_46
_symmetry_space_group_name_H-M   Pmmn
_cell_length_a   4.96408281
_cell_length_b   9.17687334
_cell_length_c   6.85754169
_cell_angle_alpha   90.00000000
_cell_angle_beta   90.00000000
_cell_angle_gamma   90.00000000
_symmetry_Int_Tables_number   59
_chemical_formula_structural   Si
_cell_volume   312.393660365
_cell_formula_units_Z   8
loop_
 _symmetry_equiv_pos_site_id
 _symmetry_equiv_pos_as_xyz
  1  'x, y, z'
  2  '-x, -y, z'
  3  'x+1/2, -y+1/2, -z'
  4  '-x+1/2, y+1/2, -z'
  5  '-x+1/2, -y+1/2, -z'
  6  'x+1/2, y+1/2, -z'
  7  '-x, y, z'
  8  'x, -y, z'
loop_
 _atom_site_type_symbol
 _atom_site_label
 _atom_site_symmetry_multiplicity
 _atom_site_fract_x
 _atom_site_fract_y
 _atom_site_fract_z
 _atom_site_occupancy
  Si  Si1  4  0.000000  0.364921  0.732135  1
  Si  Si2  4  0.250000  0.250000  0.500000  1
# generated using pymatgen
data_ID_47
_symmetry_space_group_name_H-M   Pm-3m
_cell_length_a   2.53157371
_cell_length_b   2.53157371
_cell_length_c   2.53157371
_cell_angle_alpha   90.00000000
_cell_angle_beta   90.00000000
_cell_angle_gamma   90.00000000
_symmetry_Int_Tables_number   221
_chemical_formula_structural   Si
_cell_volume   16.2245152461
_cell_formula_units_Z   1
loop_
 _symmetry_equiv_pos_site_id
 _symmetry_equiv_pos_as_xyz
  1  'x, y, z'
  2  '-x, -y, -z'
  3  '-y, x, z'
  4  'y, -x, -z'
  5  '-x, -y, z'
  6  'x, y, -z'
  7  'y, -x, z'
  8  '-y, x, -z'
  9  'x, -y, -z'
  10  '-x, y, z'
  11  '-y, -x, -z'
  12  'y, x, z'
  13  '-x, y, -z'
  14  'x, -y, z'
  15  'y, x, -z'
  16  '-y, -x, z'
  17  'z, x, y'
  18  '-z, -x, -y'
  19  'z, -y, x'
  20  '-z, y, -x'
  21  'z, -x, -y'
  22  '-z, x, y'
  23  'z, y, -x'
  24  '-z, -y, x'
  25  '-z, x, -y'
  26  'z, -x, y'
  27  '-z, -y, -x'
  28  'z, y, x'
  29  '-z, -x, y'
  30  'z, x, -y'
  31  '-z, y, x'
  32  'z, -y, -x'
  33  'y, z, x'
  34  '-y, -z, -x'
  35  'x, z, -y'
  36  '-x, -z, y'
  37  '-y, z, -x'
  38  'y, -z, x'
  39  '-x, z, y'
  40  'x, -z, -y'
  41  '-y, -z, x'
  42  'y, z, -x'
  43  '-x, -z, -y'
  44  'x, z, y'
  45  'y, -z, -x'
  46  '-y, z, x'
  47  'x, -z, y'
  48  '-x, z, -y'
loop_
 _atom_site_type_symbol
 _atom_site_label
 _atom_site_symmetry_multiplicity
 _atom_site_fract_x
 _atom_site_fract_y
 _atom_site_fract_z
 _atom_site_occupancy
  Si  Si1  1  0.000000  0.000000  0.000000  1
# generated using pymatgen
data_ID_48
_symmetry_space_group_name_H-M   Pm-3m
_cell_length_a   2.53157371
_cell_length_b   2.53157371
_cell_length_c   2.53157371
_cell_angle_alpha   90.00000000
_cell_angle_beta   90.00000000
_cell_angle_gamma   90.00000000
_symmetry_Int_Tables_number   221
_chemical_formula_structural   Si
_cell_volume   16.2245152461
_cell_formula_units_Z   1
loop_
 _symmetry_equiv_pos_site_id
 _symmetry_equiv_pos_as_xyz
  1  'x, y, z'
  2  '-x, -y, -z'
  3  '-y, x, z'
  4  'y, -x, -z'
  5  '-x, -y, z'
  6  'x, y, -z'
  7  'y, -x, z'
  8  '-y, x, -z'
  9  'x, -y, -z'
  10  '-x, y, z'
  11  '-y, -x, -z'
  12  'y, x, z'
  13  '-x, y, -z'
  14  'x, -y, z'
  15  'y, x, -z'
  16  '-y, -x, z'
  17  'z, x, y'
  18  '-z, -x, -y'
  19  'z, -y, x'
  20  '-z, y, -x'
  21  'z, -x, -y'
  22  '-z, x, y'
  23  'z, y, -x'
  24  '-z, -y, x'
  25  '-z, x, -y'
  26  'z, -x, y'
  27  '-z, -y, -x'
  28  'z, y, x'
  29  '-z, -x, y'
  30  'z, x, -y'
  31  '-z, y, x'
  32  'z, -y, -x'
  33  'y, z, x'
  34  '-y, -z, -x'
  35  'x, z, -y'
  36  '-x, -z, y'
  37  '-y, z, -x'
  38  'y, -z, x'
  39  '-x, z, y'
  40  'x, -z, -y'
  41  '-y, -z, x'
  42  'y, z, -x'
  43  '-x, -z, -y'
  44  'x, z, y'
  45  'y, -z, -x'
  46  '-y, z, x'
  47  'x, -z, y'
  48  '-x, z, -y'
loop_
 _atom_site_type_symbol
 _atom_site_label
 _atom_site_symmetry_multiplicity
 _atom_site_fract_x
 _atom_site_fract_y
 _atom_site_fract_z
 _atom_site_occupancy
  Si  Si1  1  0.000000  0.000000  0.000000  1
# generated using pymatgen
data_ID_50
_symmetry_space_group_name_H-M   P4/mmm
_cell_length_a   8.37203190
_cell_length_b   8.37203190
_cell_length_c   2.48003301
_cell_angle_alpha   90.00000000
_cell_angle_beta   90.00000000
_cell_angle_gamma   90.00000000
_symmetry_Int_Tables_number   123
_chemical_formula_structural   Si
_cell_volume   173.827790635
_cell_formula_units_Z   4
loop_
 _symmetry_equiv_pos_site_id
 _symmetry_equiv_pos_as_xyz
  1  'x, y, z'
  2  '-x, -y, -z'
  3  '-y, x, z'
  4  'y, -x, -z'
  5  '-x, -y, z'
  6  'x, y, -z'
  7  'y, -x, z'
  8  '-y, x, -z'
  9  'x, -y, -z'
  10  '-x, y, z'
  11  '-y, -x, -z'
  12  'y, x, z'
  13  '-x, y, -z'
  14  'x, -y, z'
  15  'y, x, -z'
  16  '-y, -x, z'
loop_
 _atom_site_type_symbol
 _atom_site_label
 _atom_site_symmetry_multiplicity
 _atom_site_fract_x
 _atom_site_fract_y
 _atom_site_fract_z
 _atom_site_occupancy
  Si  Si1  4  0.358296  0.358296  0.500000  1
# generated using pymatgen
data_ID_51
_symmetry_space_group_name_H-M   C2/m
_cell_length_a   7.02283055
_cell_length_b   11.41525405
_cell_length_c   3.79225778
_cell_angle_alpha   90.00000000
_cell_angle_beta   117.13538702
_cell_angle_gamma   90.00000000
_symmetry_Int_Tables_number   12
_chemical_formula_structural   Si
_cell_volume   270.552837982
_cell_formula_units_Z   16
loop_
 _symmetry_equiv_pos_site_id
 _symmetry_equiv_pos_as_xyz
  1  'x, y, z'
  2  '-x, -y, -z'
  3  '-x, y, -z'
  4  'x, -y, z'
  5  'x+1/2, y+1/2, z'
  6  '-x+1/2, -y+1/2, -z'
  7  '-x+1/2, y+1/2, -z'
  8  'x+1/2, -y+1/2, z'
loop_
 _atom_site_type_symbol
 _atom_site_label
 _atom_site_symmetry_multiplicity
 _atom_site_fract_x
 _atom_site_fract_y
 _atom_site_fract_z
 _atom_site_occupancy
  Si  Si1  8  0.136629  0.392353  0.374557  1
  Si  Si2  4  0.000000  0.104106  0.000000  1
  Si  Si3  4  0.250000  0.250000  0.000000  1
# generated using pymatgen
data_ID_52
_symmetry_space_group_name_H-M   P4_2/mcm
_cell_length_a   6.15792115
_cell_length_b   6.15792115
_cell_length_c   5.02841458
_cell_angle_alpha   90.00000000
_cell_angle_beta   90.00000000
_cell_angle_gamma   90.00000000
_symmetry_Int_Tables_number   132
_chemical_formula_structural   Si
_cell_volume   190.677445186
_cell_formula_units_Z   8
loop_
 _symmetry_equiv_pos_site_id
 _symmetry_equiv_pos_as_xyz
  1  'x, y, z'
  2  '-x, -y, -z'
  3  '-y, x, z+1/2'
  4  'y, -x, -z+1/2'
  5  '-x, -y, z'
  6  'x, y, -z'
  7  'y, -x, z+1/2'
  8  '-y, x, -z+1/2'
  9  'x, -y, -z+1/2'
  10  '-x, y, z+1/2'
  11  '-y, -x, -z'
  12  'y, x, z'
  13  '-x, y, -z+1/2'
  14  'x, -y, z+1/2'
  15  'y, x, -z'
  16  '-y, -x, z'
loop_
 _atom_site_type_symbol
 _atom_site_label
 _atom_site_symmetry_multiplicity
 _atom_site_fract_x
 _atom_site_fract_y
 _atom_site_fract_z
 _atom_site_occupancy
  Si  Si1  4  0.232303  0.232303  0.500000  1
  Si  Si2  2  0.000000  0.000000  0.250000  1
  Si  Si3  2  0.500000  0.500000  0.000000  1
# generated using pymatgen
data_ID_53
_symmetry_space_group_name_H-M   P6_3/mmc
_cell_length_a   3.63461902
_cell_length_b   3.63461902
_cell_length_c   5.69448492
_cell_angle_alpha   90.00000000
_cell_angle_beta   90.00000000
_cell_angle_gamma   120.00000000
_symmetry_Int_Tables_number   194
_chemical_formula_structural   Si
_cell_volume   65.1482670773
_cell_formula_units_Z   4
loop_
 _symmetry_equiv_pos_site_id
 _symmetry_equiv_pos_as_xyz
  1  'x, y, z'
  2  '-x, -y, -z'
  3  'x-y, x, z+1/2'
  4  '-x+y, -x, -z+1/2'
  5  '-y, x-y, z'
  6  'y, -x+y, -z'
  7  '-x, -y, z+1/2'
  8  'x, y, -z+1/2'
  9  '-x+y, -x, z'
  10  'x-y, x, -z'
  11  'y, -x+y, z+1/2'
  12  '-y, x-y, -z+1/2'
  13  '-y, -x, -z+1/2'
  14  'y, x, z+1/2'
  15  '-x, -x+y, -z'
  16  'x, x-y, z'
  17  '-x+y, y, -z+1/2'
  18  'x-y, -y, z+1/2'
  19  'y, x, -z'
  20  '-y, -x, z'
  21  'x, x-y, -z+1/2'
  22  '-x, -x+y, z+1/2'
  23  'x-y, -y, -z'
  24  '-x+y, y, z'
loop_
 _atom_site_type_symbol
 _atom_site_label
 _atom_site_symmetry_multiplicity
 _atom_site_fract_x
 _atom_site_fract_y
 _atom_site_fract_z
 _atom_site_occupancy
  Si  Si1  2  0.000000  0.000000  0.000000  1
  Si  Si2  2  0.333333  0.666667  0.250000  1
# generated using pymatgen
data_ID_54
_symmetry_space_group_name_H-M   P6_3/mmc
_cell_length_a   3.86749222
_cell_length_b   3.86749222
_cell_length_c   9.90808578
_cell_angle_alpha   90.00000000
_cell_angle_beta   90.00000000
_cell_angle_gamma   120.00000000
_symmetry_Int_Tables_number   194
_chemical_formula_structural   Si
_cell_volume   128.345098217
_cell_formula_units_Z   8
loop_
 _symmetry_equiv_pos_site_id
 _symmetry_equiv_pos_as_xyz
  1  'x, y, z'
  2  '-x, -y, -z'
  3  'y, -x+y, z+1/2'
  4  '-y, x-y, -z+1/2'
  5  '-x+y, -x, z'
  6  'x-y, x, -z'
  7  '-x, -y, z+1/2'
  8  'x, y, -z+1/2'
  9  '-y, x-y, z'
  10  'y, -x+y, -z'
  11  'x-y, x, z+1/2'
  12  '-x+y, -x, -z+1/2'
  13  '-x+y, y, -z+1/2'
  14  'x-y, -y, z+1/2'
  15  '-x, -x+y, -z'
  16  'x, x-y, z'
  17  '-y, -x, -z+1/2'
  18  'y, x, z+1/2'
  19  'x-y, -y, -z'
  20  '-x+y, y, z'
  21  'x, x-y, -z+1/2'
  22  '-x, -x+y, z+1/2'
  23  'y, x, -z'
  24  '-y, -x, z'
loop_
 _atom_site_type_symbol
 _atom_site_label
 _atom_site_symmetry_multiplicity
 _atom_site_fract_x
 _atom_site_fract_y
 _atom_site_fract_z
 _atom_site_occupancy
  Si  Si1  4  0.333333  0.666667  0.122864  1
  Si  Si2  2  0.000000  0.000000  0.000000  1
  Si  Si3  2  0.333333  0.666667  0.750000  1
# generated using pymatgen
data_ID_55
_symmetry_space_group_name_H-M   Pm-3m
_cell_length_a   4.64720974
_cell_length_b   4.64720974
_cell_length_c   4.64720974
_cell_angle_alpha   90.00000000
_cell_angle_beta   90.00000000
_cell_angle_gamma   90.00000000
_symmetry_Int_Tables_number   221
_chemical_formula_structural   Si
_cell_volume   100.363736387
_cell_formula_units_Z   4
loop_
 _symmetry_equiv_pos_site_id
 _symmetry_equiv_pos_as_xyz
  1  'x, y, z'
  2  '-x, -y, -z'
  3  '-y, x, z'
  4  'y, -x, -z'
  5  '-x, -y, z'
  6  'x, y, -z'
  7  'y, -x, z'
  8  '-y, x, -z'
  9  'x, -y, -z'
  10  '-x, y, z'
  11  '-y, -x, -z'
  12  'y, x, z'
  13  '-x, y, -z'
  14  'x, -y, z'
  15  'y, x, -z'
  16  '-y, -x, z'
  17  'z, x, y'
  18  '-z, -x, -y'
  19  'z, -y, x'
  20  '-z, y, -x'
  21  'z, -x, -y'
  22  '-z, x, y'
  23  'z, y, -x'
  24  '-z, -y, x'
  25  '-z, x, -y'
  26  'z, -x, y'
  27  '-z, -y, -x'
  28  'z, y, x'
  29  '-z, -x, y'
  30  'z, x, -y'
  31  '-z, y, x'
  32  'z, -y, -x'
  33  'y, z, x'
  34  '-y, -z, -x'
  35  'x, z, -y'
  36  '-x, -z, y'
  37  '-y, z, -x'
  38  'y, -z, x'
  39  '-x, z, y'
  40  'x, -z, -y'
  41  '-y, -z, x'
  42  'y, z, -x'
  43  '-x, -z, -y'
  44  'x, z, y'
  45  'y, -z, -x'
  46  '-y, z, x'
  47  'x, -z, y'
  48  '-x, z, -y'
loop_
 _atom_site_type_symbol
 _atom_site_label
 _atom_site_symmetry_multiplicity
 _atom_site_fract_x
 _atom_site_fract_y
 _atom_site_fract_z
 _atom_site_occupancy
  Si  Si1  3  0.000000  0.500000  0.500000  1
  Si  Si2  1  0.500000  0.500000  0.500000  1
# generated using pymatgen
data_ID_56
_symmetry_space_group_name_H-M   I422
_cell_length_a   6.59317297
_cell_length_b   6.59317297
_cell_length_c   6.77657086
_cell_angle_alpha   90.00000000
_cell_angle_beta   90.00000000
_cell_angle_gamma   90.00000000
_symmetry_Int_Tables_number   97
_chemical_formula_structural   Si
_cell_volume   294.577059929
_cell_formula_units_Z   16
loop_
 _symmetry_equiv_pos_site_id
 _symmetry_equiv_pos_as_xyz
  1  'x, y, z'
  2  'y, -x, z'
  3  '-x, -y, z'
  4  '-y, x, z'
  5  'x, -y, -z'
  6  'y, x, -z'
  7  '-x, y, -z'
  8  '-y, -x, -z'
  9  'x+1/2, y+1/2, z+1/2'
  10  'y+1/2, -x+1/2, z+1/2'
  11  '-x+1/2, -y+1/2, z+1/2'
  12  '-y+1/2, x+1/2, z+1/2'
  13  'x+1/2, -y+1/2, -z+1/2'
  14  'y+1/2, x+1/2, -z+1/2'
  15  '-x+1/2, y+1/2, -z+1/2'
  16  '-y+1/2, -x+1/2, -z+1/2'
loop_
 _atom_site_type_symbol
 _atom_site_label
 _atom_site_symmetry_multiplicity
 _atom_site_fract_x
 _atom_site_fract_y
 _atom_site_fract_z
 _atom_site_occupancy
  Si  Si1  8  0.178954  0.321046  0.750000  1
  Si  Si2  4  0.000000  0.000000  0.322493  1
  Si  Si3  4  0.000000  0.500000  0.000000  1
# generated using pymatgen
data_ID_57
_symmetry_space_group_name_H-M   I-4
_cell_length_a   5.94213063
_cell_length_b   5.94213063
_cell_length_c   8.72231141
_cell_angle_alpha   90.00000000
_cell_angle_beta   90.00000000
_cell_angle_gamma   90.00000000
_symmetry_Int_Tables_number   82
_chemical_formula_structural   Si
_cell_volume   307.975364998
_cell_formula_units_Z   16
loop_
 _symmetry_equiv_pos_site_id
 _symmetry_equiv_pos_as_xyz
  1  'x, y, z'
  2  'y, -x, -z'
  3  '-x, -y, z'
  4  '-y, x, -z'
  5  'x+1/2, y+1/2, z+1/2'
  6  'y+1/2, -x+1/2, -z+1/2'
  7  '-x+1/2, -y+1/2, z+1/2'
  8  '-y+1/2, x+1/2, -z+1/2'
loop_
 _atom_site_type_symbol
 _atom_site_label
 _atom_site_symmetry_multiplicity
 _atom_site_fract_x
 _atom_site_fract_y
 _atom_site_fract_z
 _atom_site_occupancy
  Si  Si1  8  0.169960  0.744956  0.566576  1
  Si  Si2  4  0.000000  0.500000  0.117262  1
  Si  Si3  2  0.000000  0.000000  0.000000  1
  Si  Si4  2  0.000000  0.500000  0.750000  1
# generated using pymatgen
data_ID_58
_symmetry_space_group_name_H-M   Pmmn
_cell_length_a   5.92695595
_cell_length_b   5.99755308
_cell_length_c   3.56909782
_cell_angle_alpha   90.00000000
_cell_angle_beta   90.00000000
_cell_angle_gamma   90.00000000
_symmetry_Int_Tables_number   59
_chemical_formula_structural   Si
_cell_volume   126.871551646
_cell_formula_units_Z   8
loop_
 _symmetry_equiv_pos_site_id
 _symmetry_equiv_pos_as_xyz
  1  'x, y, z'
  2  '-x, -y, z'
  3  'x+1/2, -y+1/2, -z'
  4  '-x+1/2, y+1/2, -z'
  5  '-x+1/2, -y+1/2, -z'
  6  'x+1/2, y+1/2, -z'
  7  '-x, y, z'
  8  'x, -y, z'
loop_
 _atom_site_type_symbol
 _atom_site_label
 _atom_site_symmetry_multiplicity
 _atom_site_fract_x
 _atom_site_fract_y
 _atom_site_fract_z
 _atom_site_occupancy
  Si  Si1  4  0.000000  0.203371  0.219494  1
  Si  Si2  4  0.204554  0.000000  0.740991  1
# generated using pymatgen
data_ID_59
_symmetry_space_group_name_H-M   P6_3/mmc
_cell_length_a   3.71672404
_cell_length_b   3.71672404
_cell_length_c   10.85233108
_cell_angle_alpha   90.00000000
_cell_angle_beta   90.00000000
_cell_angle_gamma   120.00000000
_symmetry_Int_Tables_number   194
_chemical_formula_structural   Si
_cell_volume   129.829773471
_cell_formula_units_Z   8
loop_
 _symmetry_equiv_pos_site_id
 _symmetry_equiv_pos_as_xyz
  1  'x, y, z'
  2  '-x, -y, -z'
  3  'y, -x+y, z+1/2'
  4  '-y, x-y, -z+1/2'
  5  '-x+y, -x, z'
  6  'x-y, x, -z'
  7  '-x, -y, z+1/2'
  8  'x, y, -z+1/2'
  9  '-y, x-y, z'
  10  'y, -x+y, -z'
  11  'x-y, x, z+1/2'
  12  '-x+y, -x, -z+1/2'
  13  '-x+y, y, -z+1/2'
  14  'x-y, -y, z+1/2'
  15  '-x, -x+y, -z'
  16  'x, x-y, z'
  17  '-y, -x, -z+1/2'
  18  'y, x, z+1/2'
  19  'x-y, -y, -z'
  20  '-x+y, y, z'
  21  'x, x-y, -z+1/2'
  22  '-x, -x+y, z+1/2'
  23  'y, x, -z'
  24  '-y, -x, z'
loop_
 _atom_site_type_symbol
 _atom_site_label
 _atom_site_symmetry_multiplicity
 _atom_site_fract_x
 _atom_site_fract_y
 _atom_site_fract_z
 _atom_site_occupancy
  Si  Si1  4  0.333333  0.666667  0.876250  1
  Si  Si2  2  0.000000  0.000000  0.000000  1
  Si  Si3  2  0.333333  0.666667  0.250000  1
# generated using pymatgen
data_ID_61
_symmetry_space_group_name_H-M   P6_3/mmc
_cell_length_a   7.23096556
_cell_length_b   7.23096556
_cell_length_c   4.90005576
_cell_angle_alpha   90.00000000
_cell_angle_beta   90.00000000
_cell_angle_gamma   120.00000000
_symmetry_Int_Tables_number   194
_chemical_formula_structural   Si
_cell_volume   221.883107284
_cell_formula_units_Z   8
loop_
 _symmetry_equiv_pos_site_id
 _symmetry_equiv_pos_as_xyz
  1  'x, y, z'
  2  '-x, -y, -z'
  3  'x-y, x, z+1/2'
  4  '-x+y, -x, -z+1/2'
  5  '-y, x-y, z'
  6  'y, -x+y, -z'
  7  '-x, -y, z+1/2'
  8  'x, y, -z+1/2'
  9  '-x+y, -x, z'
  10  'x-y, x, -z'
  11  'y, -x+y, z+1/2'
  12  '-y, x-y, -z+1/2'
  13  '-y, -x, -z+1/2'
  14  'y, x, z+1/2'
  15  '-x, -x+y, -z'
  16  'x, x-y, z'
  17  '-x+y, y, -z+1/2'
  18  'x-y, -y, z+1/2'
  19  'y, x, -z'
  20  '-y, -x, z'
  21  'x, x-y, -z+1/2'
  22  '-x, -x+y, z+1/2'
  23  'x-y, -y, -z'
  24  '-x+y, y, z'
loop_
 _atom_site_type_symbol
 _atom_site_label
 _atom_site_symmetry_multiplicity
 _atom_site_fract_x
 _atom_site_fract_y
 _atom_site_fract_z
 _atom_site_occupancy
  Si  Si1  6  0.000000  0.500000  0.000000  1
  Si  Si2  2  0.333333  0.666667  0.750000  1
# generated using pymatgen
data_ID_62
_symmetry_space_group_name_H-M   Pm-3m
_cell_length_a   2.52640519
_cell_length_b   2.52640519
_cell_length_c   2.52640519
_cell_angle_alpha   90.00000000
_cell_angle_beta   90.00000000
_cell_angle_gamma   90.00000000
_symmetry_Int_Tables_number   221
_chemical_formula_structural   Si
_cell_volume   16.1253450677
_cell_formula_units_Z   1
loop_
 _symmetry_equiv_pos_site_id
 _symmetry_equiv_pos_as_xyz
  1  'x, y, z'
  2  '-x, -y, -z'
  3  '-y, x, z'
  4  'y, -x, -z'
  5  '-x, -y, z'
  6  'x, y, -z'
  7  'y, -x, z'
  8  '-y, x, -z'
  9  'x, -y, -z'
  10  '-x, y, z'
  11  '-y, -x, -z'
  12  'y, x, z'
  13  '-x, y, -z'
  14  'x, -y, z'
  15  'y, x, -z'
  16  '-y, -x, z'
  17  'z, x, y'
  18  '-z, -x, -y'
  19  'z, -y, x'
  20  '-z, y, -x'
  21  'z, -x, -y'
  22  '-z, x, y'
  23  'z, y, -x'
  24  '-z, -y, x'
  25  '-z, x, -y'
  26  'z, -x, y'
  27  '-z, -y, -x'
  28  'z, y, x'
  29  '-z, -x, y'
  30  'z, x, -y'
  31  '-z, y, x'
  32  'z, -y, -x'
  33  'y, z, x'
  34  '-y, -z, -x'
  35  'x, z, -y'
  36  '-x, -z, y'
  37  '-y, z, -x'
  38  'y, -z, x'
  39  '-x, z, y'
  40  'x, -z, -y'
  41  '-y, -z, x'
  42  'y, z, -x'
  43  '-x, -z, -y'
  44  'x, z, y'
  45  'y, -z, -x'
  46  '-y, z, x'
  47  'x, -z, y'
  48  '-x, z, -y'
loop_
 _atom_site_type_symbol
 _atom_site_label
 _atom_site_symmetry_multiplicity
 _atom_site_fract_x
 _atom_site_fract_y
 _atom_site_fract_z
 _atom_site_occupancy
  Si  Si1  1  0.000000  0.000000  0.000000  1
# generated using pymatgen
data_ID_63
_symmetry_space_group_name_H-M   Ia-3d
_cell_length_a   6.56635504
_cell_length_b   6.56635504
_cell_length_c   6.56635504
_cell_angle_alpha   90.00000000
_cell_angle_beta   90.00000000
_cell_angle_gamma   90.00000000
_symmetry_Int_Tables_number   230
_chemical_formula_structural   Si
_cell_volume   283.121651572
_cell_formula_units_Z   16
loop_
 _symmetry_equiv_pos_site_id
 _symmetry_equiv_pos_as_xyz
  1  'x, y, z'
  2  '-x, -y, -z'
  3  'x+1/4, -z+1/4, y+3/4'
  4  '-x+1/4, z+1/4, -y+3/4'
  5  'x+1/2, -y+1/2, -z'
  6  '-x, y, z+1/2'
  7  'x+3/4, z+1/4, -y+1/4'
  8  '-x+1/4, -z+3/4, y+3/4'
  9  '-x, -y+1/2, z'
  10  'x, y+1/2, -z'
  11  '-x+3/4, z+1/4, y+3/4'
  12  'x+1/4, -z+3/4, -y+1/4'
  13  '-x+1/2, y, -z'
  14  'x, -y+1/2, z+1/2'
  15  '-x+3/4, -z+3/4, -y+3/4'
  16  'x+1/4, z+1/4, y+1/4'
  17  'y, -z, -x+1/2'
  18  '-y, z, x+1/2'
  19  '-z+1/4, -y+1/4, -x+1/4'
  20  'z+1/4, y+1/4, x+1/4'
  21  '-y, z+1/2, -x+1/2'
  22  'y, -z+1/2, x+1/2'
  23  'z+3/4, y+1/4, -x+1/4'
  24  '-z+1/4, -y+3/4, x+3/4'
  25  '-y, -z+1/2, x'
  26  'y, z+1/2, -x'
  27  'z+1/4, -y+1/4, x+3/4'
  28  '-z+1/4, y+1/4, -x+3/4'
  29  'y, z, x'
  30  '-y, -z, -x'
  31  '-z+3/4, y+1/4, x+3/4'
  32  'z+3/4, -y+1/4, -x+3/4'
  33  '-z+1/2, x, -y'
  34  'z+1/2, -x, y'
  35  '-y+3/4, x+1/4, z+3/4'
  36  'y+3/4, -x+1/4, -z+3/4'
  37  'z, x, y'
  38  '-z+1/2, -x+1/2, -y+1/2'
  39  'y+1/4, x+3/4, -z+3/4'
  40  '-y+1/4, -x+3/4, z+3/4'
  41  '-z, -x+1/2, y'
  42  'z, x+1/2, -y'
  43  '-y+1/4, -x+1/4, -z+1/4'
  44  'y+3/4, x+3/4, z+3/4'
  45  'z, -x, -y+1/2'
  46  '-z+1/2, x+1/2, y'
  47  'y+1/4, -x+1/4, z+3/4'
  48  '-y+1/4, x+1/4, -z+3/4'
  49  'x+1/2, y+1/2, z+1/2'
  50  '-x+1/2, -y+1/2, -z+1/2'
  51  'x+3/4, -z+3/4, y+1/4'
  52  '-x+3/4, z+3/4, -y+1/4'
  53  'x, -y, -z+1/2'
  54  '-x+1/2, y+1/2, z'
  55  'x+1/4, z+3/4, -y+3/4'
  56  '-x+3/4, -z+1/4, y+1/4'
  57  '-x+1/2, -y, z+1/2'
  58  'x+1/2, y, -z+1/2'
  59  '-x+1/4, z+3/4, y+1/4'
  60  'x+3/4, -z+1/4, -y+3/4'
  61  '-x, y+1/2, -z+1/2'
  62  'x+1/2, -y, z'
  63  '-x+1/4, -z+1/4, -y+1/4'
  64  'x+3/4, z+3/4, y+3/4'
  65  'y+1/2, -z+1/2, -x'
  66  '-y+1/2, z+1/2, x'
  67  '-z+3/4, -y+3/4, -x+3/4'
  68  'z+3/4, y+3/4, x+3/4'
  69  '-y+1/2, z, -x'
  70  'y+1/2, -z, x'
  71  'z+1/4, y+3/4, -x+3/4'
  72  '-z+3/4, -y+1/4, x+1/4'
  73  '-y+1/2, -z, x+1/2'
  74  'y+1/2, z, -x+1/2'
  75  'z+3/4, -y+3/4, x+1/4'
  76  '-z+3/4, y+3/4, -x+1/4'
  77  'y+1/2, z+1/2, x+1/2'
  78  '-y+1/2, -z+1/2, -x+1/2'
  79  '-z+1/4, y+3/4, x+1/4'
  80  'z+1/4, -y+3/4, -x+1/4'
  81  '-z, x+1/2, -y+1/2'
  82  'z, -x+1/2, y+1/2'
  83  '-y+1/4, x+3/4, z+1/4'
  84  'y+1/4, -x+3/4, -z+1/4'
  85  'z+1/2, x+1/2, y+1/2'
  86  '-z, -x, -y'
  87  'y+3/4, x+1/4, -z+1/4'
  88  '-y+3/4, -x+1/4, z+1/4'
  89  '-z+1/2, -x, y+1/2'
  90  'z+1/2, x, -y+1/2'
  91  '-y+3/4, -x+3/4, -z+3/4'
  92  'y+1/4, x+1/4, z+1/4'
  93  'z+1/2, -x+1/2, -y'
  94  '-z, x, y+1/2'
  95  'y+3/4, -x+3/4, z+1/4'
  96  '-y+3/4, x+3/4, -z+1/4'
loop_
 _atom_site_type_symbol
 _atom_site_label
 _atom_site_symmetry_multiplicity
 _atom_site_fract_x
 _atom_site_fract_y
 _atom_site_fract_z
 _atom_site_occupancy
  Si  Si1  16  0.125000  0.125000  0.125000  1
# generated using pymatgen
data_ID_64
_symmetry_space_group_name_H-M   Im-3m
_cell_length_a   7.48866773
_cell_length_b   7.48866773
_cell_length_c   7.48866773
_cell_angle_alpha   90.00000000
_cell_angle_beta   90.00000000
_cell_angle_gamma   90.00000000
_symmetry_Int_Tables_number   229
_chemical_formula_structural   Si
_cell_volume   419.965567532
_cell_formula_units_Z   16
loop_
 _symmetry_equiv_pos_site_id
 _symmetry_equiv_pos_as_xyz
  1  'x, y, z'
  2  '-x, -y, -z'
  3  'x, -z, y'
  4  '-x, z, -y'
  5  'x, -y, -z'
  6  '-x, y, z'
  7  'x, z, -y'
  8  '-x, -z, y'
  9  '-x, y, -z'
  10  'x, -y, z'
  11  '-x, -z, -y'
  12  'x, z, y'
  13  '-x, -y, z'
  14  'x, y, -z'
  15  '-x, z, y'
  16  'x, -z, -y'
  17  '-z, -x, y'
  18  'z, x, -y'
  19  '-y, -x, -z'
  20  'y, x, z'
  21  'z, -x, -y'
  22  '-z, x, y'
  23  'y, -x, z'
  24  '-y, x, -z'
  25  'z, x, y'
  26  '-z, -x, -y'
  27  'y, x, -z'
  28  '-y, -x, z'
  29  '-z, x, -y'
  30  'z, -x, y'
  31  '-y, x, z'
  32  'y, -x, -z'
  33  '-y, z, -x'
  34  'y, -z, x'
  35  'z, y, -x'
  36  '-z, -y, x'
  37  'y, -z, -x'
  38  '-y, z, x'
  39  '-z, -y, -x'
  40  'z, y, x'
  41  '-y, -z, x'
  42  'y, z, -x'
  43  'z, -y, x'
  44  '-z, y, -x'
  45  'y, z, x'
  46  '-y, -z, -x'
  47  '-z, y, x'
  48  'z, -y, -x'
  49  'x+1/2, y+1/2, z+1/2'
  50  '-x+1/2, -y+1/2, -z+1/2'
  51  'x+1/2, -z+1/2, y+1/2'
  52  '-x+1/2, z+1/2, -y+1/2'
  53  'x+1/2, -y+1/2, -z+1/2'
  54  '-x+1/2, y+1/2, z+1/2'
  55  'x+1/2, z+1/2, -y+1/2'
  56  '-x+1/2, -z+1/2, y+1/2'
  57  '-x+1/2, y+1/2, -z+1/2'
  58  'x+1/2, -y+1/2, z+1/2'
  59  '-x+1/2, -z+1/2, -y+1/2'
  60  'x+1/2, z+1/2, y+1/2'
  61  '-x+1/2, -y+1/2, z+1/2'
  62  'x+1/2, y+1/2, -z+1/2'
  63  '-x+1/2, z+1/2, y+1/2'
  64  'x+1/2, -z+1/2, -y+1/2'
  65  '-z+1/2, -x+1/2, y+1/2'
  66  'z+1/2, x+1/2, -y+1/2'
  67  '-y+1/2, -x+1/2, -z+1/2'
  68  'y+1/2, x+1/2, z+1/2'
  69  'z+1/2, -x+1/2, -y+1/2'
  70  '-z+1/2, x+1/2, y+1/2'
  71  'y+1/2, -x+1/2, z+1/2'
  72  '-y+1/2, x+1/2, -z+1/2'
  73  'z+1/2, x+1/2, y+1/2'
  74  '-z+1/2, -x+1/2, -y+1/2'
  75  'y+1/2, x+1/2, -z+1/2'
  76  '-y+1/2, -x+1/2, z+1/2'
  77  '-z+1/2, x+1/2, -y+1/2'
  78  'z+1/2, -x+1/2, y+1/2'
  79  '-y+1/2, x+1/2, z+1/2'
  80  'y+1/2, -x+1/2, -z+1/2'
  81  '-y+1/2, z+1/2, -x+1/2'
  82  'y+1/2, -z+1/2, x+1/2'
  83  'z+1/2, y+1/2, -x+1/2'
  84  '-z+1/2, -y+1/2, x+1/2'
  85  'y+1/2, -z+1/2, -x+1/2'
  86  '-y+1/2, z+1/2, x+1/2'
  87  '-z+1/2, -y+1/2, -x+1/2'
  88  'z+1/2, y+1/2, x+1/2'
  89  '-y+1/2, -z+1/2, x+1/2'
  90  'y+1/2, z+1/2, -x+1/2'
  91  'z+1/2, -y+1/2, x+1/2'
  92  '-z+1/2, y+1/2, -x+1/2'
  93  'y+1/2, z+1/2, x+1/2'
  94  '-y+1/2, -z+1/2, -x+1/2'
  95  '-z+1/2, y+1/2, x+1/2'
  96  'z+1/2, -y+1/2, -x+1/2'
loop_
 _atom_site_type_symbol
 _atom_site_label
 _atom_site_symmetry_multiplicity
 _atom_site_fract_x
 _atom_site_fract_y
 _atom_site_fract_z
 _atom_site_occupancy
  Si  Si1  16  0.160048  0.839952  0.839952  1
# generated using pymatgen
data_ID_65
_symmetry_space_group_name_H-M   P4/mmm
_cell_length_a   3.33837573
_cell_length_b   3.33837573
_cell_length_c   7.20587999
_cell_angle_alpha   90.00000000
_cell_angle_beta   90.00000000
_cell_angle_gamma   90.00000000
_symmetry_Int_Tables_number   123
_chemical_formula_structural   Si
_cell_volume   80.3077491143
_cell_formula_units_Z   4
loop_
 _symmetry_equiv_pos_site_id
 _symmetry_equiv_pos_as_xyz
  1  'x, y, z'
  2  '-x, -y, -z'
  3  '-y, x, z'
  4  'y, -x, -z'
  5  '-x, -y, z'
  6  'x, y, -z'
  7  'y, -x, z'
  8  '-y, x, -z'
  9  'x, -y, -z'
  10  '-x, y, z'
  11  '-y, -x, -z'
  12  'y, x, z'
  13  '-x, y, -z'
  14  'x, -y, z'
  15  'y, x, -z'
  16  '-y, -x, z'
loop_
 _atom_site_type_symbol
 _atom_site_label
 _atom_site_symmetry_multiplicity
 _atom_site_fract_x
 _atom_site_fract_y
 _atom_site_fract_z
 _atom_site_occupancy
  Si  Si1  2  0.500000  0.500000  0.162317  1
  Si  Si2  1  0.000000  0.000000  0.500000  1
  Si  Si3  1  0.500000  0.500000  0.500000  1
# generated using pymatgen
data_ID_66
_symmetry_space_group_name_H-M   P2/m
_cell_length_a   4.01327498
_cell_length_b   3.61609065
_cell_length_c   4.14737485
_cell_angle_alpha   90.00000000
_cell_angle_beta   107.20978698
_cell_angle_gamma   90.00000000
_symmetry_Int_Tables_number   10
_chemical_formula_structural   Si
_cell_volume   57.493465426
_cell_formula_units_Z   4
loop_
 _symmetry_equiv_pos_site_id
 _symmetry_equiv_pos_as_xyz
  1  'x, y, z'
  2  '-x, -y, -z'
  3  '-x, y, -z'
  4  'x, -y, z'
loop_
 _atom_site_type_symbol
 _atom_site_label
 _atom_site_symmetry_multiplicity
 _atom_site_fract_x
 _atom_site_fract_y
 _atom_site_fract_z
 _atom_site_occupancy
  Si  Si1  2  0.500000  0.274574  0.000000  1
  Si  Si2  1  0.000000  0.500000  0.000000  1
  Si  Si3  1  0.500000  0.500000  0.500000  1
# generated using pymatgen
data_ID_68
_symmetry_space_group_name_H-M   P4/mmm
_cell_length_a   5.80280666
_cell_length_b   5.80280666
_cell_length_c   2.62813550
_cell_angle_alpha   90.00000000
_cell_angle_beta   90.00000000
_cell_angle_gamma   90.00000000
_symmetry_Int_Tables_number   123
_chemical_formula_structural   Si
_cell_volume   88.4960639513
_cell_formula_units_Z   4
loop_
 _symmetry_equiv_pos_site_id
 _symmetry_equiv_pos_as_xyz
  1  'x, y, z'
  2  '-x, -y, -z'
  3  '-y, x, z'
  4  'y, -x, -z'
  5  '-x, -y, z'
  6  'x, y, -z'
  7  'y, -x, z'
  8  '-y, x, -z'
  9  'x, -y, -z'
  10  '-x, y, z'
  11  '-y, -x, -z'
  12  'y, x, z'
  13  '-x, y, -z'
  14  'x, -y, z'
  15  'y, x, -z'
  16  '-y, -x, z'
loop_
 _atom_site_type_symbol
 _atom_site_label
 _atom_site_symmetry_multiplicity
 _atom_site_fract_x
 _atom_site_fract_y
 _atom_site_fract_z
 _atom_site_occupancy
  Si  Si1  4  0.000000  0.293661  0.500000  1
# generated using pymatgen
data_ID_70
_symmetry_space_group_name_H-M   P4/mmm
_cell_length_a   4.05075617
_cell_length_b   4.05075617
_cell_length_c   5.23896517
_cell_angle_alpha   90.00000000
_cell_angle_beta   90.00000000
_cell_angle_gamma   90.00000000
_symmetry_Int_Tables_number   123
_chemical_formula_structural   Si
_cell_volume   85.9642176998
_cell_formula_units_Z   4
loop_
 _symmetry_equiv_pos_site_id
 _symmetry_equiv_pos_as_xyz
  1  'x, y, z'
  2  '-x, -y, -z'
  3  '-y, x, z'
  4  'y, -x, -z'
  5  '-x, -y, z'
  6  'x, y, -z'
  7  'y, -x, z'
  8  '-y, x, -z'
  9  'x, -y, -z'
  10  '-x, y, z'
  11  '-y, -x, -z'
  12  'y, x, z'
  13  '-x, y, -z'
  14  'x, -y, z'
  15  'y, x, -z'
  16  '-y, -x, z'
loop_
 _atom_site_type_symbol
 _atom_site_label
 _atom_site_symmetry_multiplicity
 _atom_site_fract_x
 _atom_site_fract_y
 _atom_site_fract_z
 _atom_site_occupancy
  Si  Si1  2  0.000000  0.500000  0.500000  1
  Si  Si2  2  0.500000  0.500000  0.224045  1
# generated using pymatgen
data_ID_71
_symmetry_space_group_name_H-M   I4_1/a
_cell_length_a   6.67745769
_cell_length_b   6.67745769
_cell_length_c   6.50491132
_cell_angle_alpha   90.00000000
_cell_angle_beta   90.00000000
_cell_angle_gamma   90.00000000
_symmetry_Int_Tables_number   88
_chemical_formula_structural   Si
_cell_volume   290.043856079
_cell_formula_units_Z   16
loop_
 _symmetry_equiv_pos_site_id
 _symmetry_equiv_pos_as_xyz
  1  'x, y, z'
  2  'y+1/2, -x, z+3/4'
  3  '-x, -y, z'
  4  '-y+1/2, x, z+3/4'
  5  '-x+1/2, -y, -z+3/4'
  6  '-y, x, -z'
  7  'x+1/2, y, -z+3/4'
  8  'y, -x, -z'
  9  'x+1/2, y+1/2, z+1/2'
  10  'y, -x+1/2, z+1/4'
  11  '-x+1/2, -y+1/2, z+1/2'
  12  '-y, x+1/2, z+1/4'
  13  '-x, -y+1/2, -z+1/4'
  14  '-y+1/2, x+1/2, -z+1/2'
  15  'x, y+1/2, -z+1/4'
  16  'y+1/2, -x+1/2, -z+1/2'
loop_
 _atom_site_type_symbol
 _atom_site_label
 _atom_site_symmetry_multiplicity
 _atom_site_fract_x
 _atom_site_fract_y
 _atom_site_fract_z
 _atom_site_occupancy
  Si  Si1  16  0.097616  0.150362  0.239542  1
# generated using pymatgen
data_ID_73
_symmetry_space_group_name_H-M   Pm-3m
_cell_length_a   2.53281498
_cell_length_b   2.53281498
_cell_length_c   2.53281498
_cell_angle_alpha   90.00000000
_cell_angle_beta   90.00000000
_cell_angle_gamma   90.00000000
_symmetry_Int_Tables_number   221
_chemical_formula_structural   Si
_cell_volume   16.2483923713
_cell_formula_units_Z   1
loop_
 _symmetry_equiv_pos_site_id
 _symmetry_equiv_pos_as_xyz
  1  'x, y, z'
  2  '-x, -y, -z'
  3  '-y, x, z'
  4  'y, -x, -z'
  5  '-x, -y, z'
  6  'x, y, -z'
  7  'y, -x, z'
  8  '-y, x, -z'
  9  'x, -y, -z'
  10  '-x, y, z'
  11  '-y, -x, -z'
  12  'y, x, z'
  13  '-x, y, -z'
  14  'x, -y, z'
  15  'y, x, -z'
  16  '-y, -x, z'
  17  'z, x, y'
  18  '-z, -x, -y'
  19  'z, -y, x'
  20  '-z, y, -x'
  21  'z, -x, -y'
  22  '-z, x, y'
  23  'z, y, -x'
  24  '-z, -y, x'
  25  '-z, x, -y'
  26  'z, -x, y'
  27  '-z, -y, -x'
  28  'z, y, x'
  29  '-z, -x, y'
  30  'z, x, -y'
  31  '-z, y, x'
  32  'z, -y, -x'
  33  'y, z, x'
  34  '-y, -z, -x'
  35  'x, z, -y'
  36  '-x, -z, y'
  37  '-y, z, -x'
  38  'y, -z, x'
  39  '-x, z, y'
  40  'x, -z, -y'
  41  '-y, -z, x'
  42  'y, z, -x'
  43  '-x, -z, -y'
  44  'x, z, y'
  45  'y, -z, -x'
  46  '-y, z, x'
  47  'x, -z, y'
  48  '-x, z, -y'
loop_
 _atom_site_type_symbol
 _atom_site_label
 _atom_site_symmetry_multiplicity
 _atom_site_fract_x
 _atom_site_fract_y
 _atom_site_fract_z
 _atom_site_occupancy
  Si  Si1  1  0.000000  0.000000  0.000000  1
# generated using pymatgen
data_ID_74
_symmetry_space_group_name_H-M   P-4m2
_cell_length_a   3.52839680
_cell_length_b   3.52839680
_cell_length_c   6.12363681
_cell_angle_alpha   90.00000000
_cell_angle_beta   90.00000000
_cell_angle_gamma   90.00000000
_symmetry_Int_Tables_number   115
_chemical_formula_structural   Si
_cell_volume   76.2367306662
_cell_formula_units_Z   4
loop_
 _symmetry_equiv_pos_site_id
 _symmetry_equiv_pos_as_xyz
  1  'x, y, z'
  2  'y, -x, -z'
  3  '-x, -y, z'
  4  '-y, x, -z'
  5  'x, -y, z'
  6  'y, x, -z'
  7  '-x, y, z'
  8  '-y, -x, -z'
loop_
 _atom_site_type_symbol
 _atom_site_label
 _atom_site_symmetry_multiplicity
 _atom_site_fract_x
 _atom_site_fract_y
 _atom_site_fract_z
 _atom_site_occupancy
  Si  Si1  2  0.000000  0.500000  0.477057  1
  Si  Si2  2  0.500000  0.500000  0.194748  1
# generated using pymatgen
data_ID_76
_symmetry_space_group_name_H-M   Pccm
_cell_length_a   3.44076216
_cell_length_b   4.79531469
_cell_length_c   10.73225989
_cell_angle_alpha   90.00000000
_cell_angle_beta   90.00000000
_cell_angle_gamma   90.00000000
_symmetry_Int_Tables_number   49
_chemical_formula_structural   Si
_cell_volume   177.077322736
_cell_formula_units_Z   8
loop_
 _symmetry_equiv_pos_site_id
 _symmetry_equiv_pos_as_xyz
  1  'x, y, z'
  2  '-x, -y, -z'
  3  '-x, -y, z'
  4  'x, y, -z'
  5  'x, -y, -z+1/2'
  6  '-x, y, z+1/2'
  7  '-x, y, -z+1/2'
  8  'x, -y, z+1/2'
loop_
 _atom_site_type_symbol
 _atom_site_label
 _atom_site_symmetry_multiplicity
 _atom_site_fract_x
 _atom_site_fract_y
 _atom_site_fract_z
 _atom_site_occupancy
  Si  Si1  4  0.000000  0.500000  0.143618  1
  Si  Si2  4  0.237635  0.168790  0.500000  1
# generated using pymatgen
data_ID_79
_symmetry_space_group_name_H-M   P6/mmm
_cell_length_a   7.16149207
_cell_length_b   7.16149207
_cell_length_c   3.43133421
_cell_angle_alpha   90.00000000
_cell_angle_beta   90.00000000
_cell_angle_gamma   120.00000000
_symmetry_Int_Tables_number   191
_chemical_formula_structural   Si
_cell_volume   152.40551458
_cell_formula_units_Z   8
loop_
 _symmetry_equiv_pos_site_id
 _symmetry_equiv_pos_as_xyz
  1  'x, y, z'
  2  '-x, -y, -z'
  3  'y, -x+y, z'
  4  '-y, x-y, -z'
  5  '-x+y, -x, z'
  6  'x-y, x, -z'
  7  '-x, -y, z'
  8  'x, y, -z'
  9  '-y, x-y, z'
  10  'y, -x+y, -z'
  11  'x-y, x, z'
  12  '-x+y, -x, -z'
  13  '-y, -x, -z'
  14  'y, x, z'
  15  'x-y, -y, -z'
  16  '-x+y, y, z'
  17  'x, x-y, -z'
  18  '-x, -x+y, z'
  19  'y, x, -z'
  20  '-y, -x, z'
  21  '-x+y, y, -z'
  22  'x-y, -y, z'
  23  '-x, -x+y, -z'
  24  'x, x-y, z'
loop_
 _atom_site_type_symbol
 _atom_site_label
 _atom_site_symmetry_multiplicity
 _atom_site_fract_x
 _atom_site_fract_y
 _atom_site_fract_z
 _atom_site_occupancy
  Si  Si1  6  0.191013  0.382026  0.500000  1
  Si  Si2  2  0.333333  0.666667  0.000000  1
# generated using pymatgen
data_ID_77
_symmetry_space_group_name_H-M   Cmmm
_cell_length_a   5.43793935
_cell_length_b   5.77689644
_cell_length_c   5.29738031
_cell_angle_alpha   90.00000000
_cell_angle_beta   90.00000000
_cell_angle_gamma   90.00000000
_symmetry_Int_Tables_number   65
_chemical_formula_structural   Si
_cell_volume   166.414089767
_cell_formula_units_Z   8
loop_
 _symmetry_equiv_pos_site_id
 _symmetry_equiv_pos_as_xyz
  1  'x, y, z'
  2  '-x, -y, -z'
  3  '-x, -y, z'
  4  'x, y, -z'
  5  'x, -y, -z'
  6  '-x, y, z'
  7  '-x, y, -z'
  8  'x, -y, z'
  9  'x+1/2, y+1/2, z'
  10  '-x+1/2, -y+1/2, -z'
  11  '-x+1/2, -y+1/2, z'
  12  'x+1/2, y+1/2, -z'
  13  'x+1/2, -y+1/2, -z'
  14  '-x+1/2, y+1/2, z'
  15  '-x+1/2, y+1/2, -z'
  16  'x+1/2, -y+1/2, z'
loop_
 _atom_site_type_symbol
 _atom_site_label
 _atom_site_symmetry_multiplicity
 _atom_site_fract_x
 _atom_site_fract_y
 _atom_site_fract_z
 _atom_site_occupancy
  Si  Si1  4  0.000000  0.500000  0.281631  1
  Si  Si2  4  0.250000  0.250000  0.000000  1
# generated using pymatgen
data_ID_81
_symmetry_space_group_name_H-M   Pm-3m
_cell_length_a   2.52773101
_cell_length_b   2.52773101
_cell_length_c   2.52773101
_cell_angle_alpha   90.00000000
_cell_angle_beta   90.00000000
_cell_angle_gamma   90.00000000
_symmetry_Int_Tables_number   221
_chemical_formula_structural   Si
_cell_volume   16.1507453168
_cell_formula_units_Z   1
loop_
 _symmetry_equiv_pos_site_id
 _symmetry_equiv_pos_as_xyz
  1  'x, y, z'
  2  '-x, -y, -z'
  3  '-y, x, z'
  4  'y, -x, -z'
  5  '-x, -y, z'
  6  'x, y, -z'
  7  'y, -x, z'
  8  '-y, x, -z'
  9  'x, -y, -z'
  10  '-x, y, z'
  11  '-y, -x, -z'
  12  'y, x, z'
  13  '-x, y, -z'
  14  'x, -y, z'
  15  'y, x, -z'
  16  '-y, -x, z'
  17  'z, x, y'
  18  '-z, -x, -y'
  19  'z, -y, x'
  20  '-z, y, -x'
  21  'z, -x, -y'
  22  '-z, x, y'
  23  'z, y, -x'
  24  '-z, -y, x'
  25  '-z, x, -y'
  26  'z, -x, y'
  27  '-z, -y, -x'
  28  'z, y, x'
  29  '-z, -x, y'
  30  'z, x, -y'
  31  '-z, y, x'
  32  'z, -y, -x'
  33  'y, z, x'
  34  '-y, -z, -x'
  35  'x, z, -y'
  36  '-x, -z, y'
  37  '-y, z, -x'
  38  'y, -z, x'
  39  '-x, z, y'
  40  'x, -z, -y'
  41  '-y, -z, x'
  42  'y, z, -x'
  43  '-x, -z, -y'
  44  'x, z, y'
  45  'y, -z, -x'
  46  '-y, z, x'
  47  'x, -z, y'
  48  '-x, z, -y'
loop_
 _atom_site_type_symbol
 _atom_site_label
 _atom_site_symmetry_multiplicity
 _atom_site_fract_x
 _atom_site_fract_y
 _atom_site_fract_z
 _atom_site_occupancy
  Si  Si1  1  0.000000  0.000000  0.000000  1
# generated using pymatgen
data_ID_82
_symmetry_space_group_name_H-M   P4_2/mmc
_cell_length_a   3.64415339
_cell_length_b   3.64415339
_cell_length_c   12.25311612
_cell_angle_alpha   90.00000000
_cell_angle_beta   90.00000000
_cell_angle_gamma   90.00000000
_symmetry_Int_Tables_number   131
_chemical_formula_structural   Si
_cell_volume   162.71959206
_cell_formula_units_Z   8
loop_
 _symmetry_equiv_pos_site_id
 _symmetry_equiv_pos_as_xyz
  1  'x, y, z'
  2  '-x, -y, -z'
  3  '-y, x, z+1/2'
  4  'y, -x, -z+1/2'
  5  '-x, -y, z'
  6  'x, y, -z'
  7  'y, -x, z+1/2'
  8  '-y, x, -z+1/2'
  9  'x, -y, -z'
  10  '-x, y, z'
  11  '-y, -x, -z+1/2'
  12  'y, x, z+1/2'
  13  '-x, y, -z'
  14  'x, -y, z'
  15  'y, x, -z+1/2'
  16  '-y, -x, z+1/2'
loop_
 _atom_site_type_symbol
 _atom_site_label
 _atom_site_symmetry_multiplicity
 _atom_site_fract_x
 _atom_site_fract_y
 _atom_site_fract_z
 _atom_site_occupancy
  Si  Si1  4  0.000000  0.500000  0.369331  1
  Si  Si2  2  0.000000  0.000000  0.250000  1
  Si  Si3  2  0.500000  0.500000  0.000000  1
# generated using pymatgen
data_ID_83
_symmetry_space_group_name_H-M   Fm-3m
_cell_length_a   3.86505519
_cell_length_b   3.86505519
_cell_length_c   3.86505519
_cell_angle_alpha   90.00000000
_cell_angle_beta   90.00000000
_cell_angle_gamma   90.00000000
_symmetry_Int_Tables_number   225
_chemical_formula_structural   Si
_cell_volume   57.7387131447
_cell_formula_units_Z   4
loop_
 _symmetry_equiv_pos_site_id
 _symmetry_equiv_pos_as_xyz
  1  'x, y, z'
  2  '-x, -y, -z'
  3  '-z, y, x'
  4  'z, -y, -x'
  5  '-x, y, -z'
  6  'x, -y, z'
  7  'z, y, -x'
  8  '-z, -y, x'
  9  'x, -y, -z'
  10  '-x, y, z'
  11  '-z, -y, -x'
  12  'z, y, x'
  13  '-x, -y, z'
  14  'x, y, -z'
  15  'z, -y, x'
  16  '-z, y, -x'
  17  'y, z, x'
  18  '-y, -z, -x'
  19  'y, x, -z'
  20  '-y, -x, z'
  21  'y, -z, -x'
  22  '-y, z, x'
  23  'y, -x, z'
  24  '-y, x, -z'
  25  '-y, -z, x'
  26  'y, z, -x'
  27  '-y, -x, -z'
  28  'y, x, z'
  29  '-y, z, -x'
  30  'y, -z, x'
  31  '-y, x, z'
  32  'y, -x, -z'
  33  'z, x, y'
  34  '-z, -x, -y'
  35  'x, -z, y'
  36  '-x, z, -y'
  37  '-z, -x, y'
  38  'z, x, -y'
  39  '-x, z, y'
  40  'x, -z, -y'
  41  '-z, x, -y'
  42  'z, -x, y'
  43  '-x, -z, -y'
  44  'x, z, y'
  45  'z, -x, -y'
  46  '-z, x, y'
  47  'x, z, -y'
  48  '-x, -z, y'
  49  'x+1/2, y+1/2, z'
  50  '-x+1/2, -y+1/2, -z'
  51  '-z+1/2, y+1/2, x'
  52  'z+1/2, -y+1/2, -x'
  53  '-x+1/2, y+1/2, -z'
  54  'x+1/2, -y+1/2, z'
  55  'z+1/2, y+1/2, -x'
  56  '-z+1/2, -y+1/2, x'
  57  'x+1/2, -y+1/2, -z'
  58  '-x+1/2, y+1/2, z'
  59  '-z+1/2, -y+1/2, -x'
  60  'z+1/2, y+1/2, x'
  61  '-x+1/2, -y+1/2, z'
  62  'x+1/2, y+1/2, -z'
  63  'z+1/2, -y+1/2, x'
  64  '-z+1/2, y+1/2, -x'
  65  'y+1/2, z+1/2, x'
  66  '-y+1/2, -z+1/2, -x'
  67  'y+1/2, x+1/2, -z'
  68  '-y+1/2, -x+1/2, z'
  69  'y+1/2, -z+1/2, -x'
  70  '-y+1/2, z+1/2, x'
  71  'y+1/2, -x+1/2, z'
  72  '-y+1/2, x+1/2, -z'
  73  '-y+1/2, -z+1/2, x'
  74  'y+1/2, z+1/2, -x'
  75  '-y+1/2, -x+1/2, -z'
  76  'y+1/2, x+1/2, z'
  77  '-y+1/2, z+1/2, -x'
  78  'y+1/2, -z+1/2, x'
  79  '-y+1/2, x+1/2, z'
  80  'y+1/2, -x+1/2, -z'
  81  'z+1/2, x+1/2, y'
  82  '-z+1/2, -x+1/2, -y'
  83  'x+1/2, -z+1/2, y'
  84  '-x+1/2, z+1/2, -y'
  85  '-z+1/2, -x+1/2, y'
  86  'z+1/2, x+1/2, -y'
  87  '-x+1/2, z+1/2, y'
  88  'x+1/2, -z+1/2, -y'
  89  '-z+1/2, x+1/2, -y'
  90  'z+1/2, -x+1/2, y'
  91  '-x+1/2, -z+1/2, -y'
  92  'x+1/2, z+1/2, y'
  93  'z+1/2, -x+1/2, -y'
  94  '-z+1/2, x+1/2, y'
  95  'x+1/2, z+1/2, -y'
  96  '-x+1/2, -z+1/2, y'
  97  'x+1/2, y, z+1/2'
  98  '-x+1/2, -y, -z+1/2'
  99  '-z+1/2, y, x+1/2'
  100  'z+1/2, -y, -x+1/2'
  101  '-x+1/2, y, -z+1/2'
  102  'x+1/2, -y, z+1/2'
  103  'z+1/2, y, -x+1/2'
  104  '-z+1/2, -y, x+1/2'
  105  'x+1/2, -y, -z+1/2'
  106  '-x+1/2, y, z+1/2'
  107  '-z+1/2, -y, -x+1/2'
  108  'z+1/2, y, x+1/2'
  109  '-x+1/2, -y, z+1/2'
  110  'x+1/2, y, -z+1/2'
  111  'z+1/2, -y, x+1/2'
  112  '-z+1/2, y, -x+1/2'
  113  'y+1/2, z, x+1/2'
  114  '-y+1/2, -z, -x+1/2'
  115  'y+1/2, x, -z+1/2'
  116  '-y+1/2, -x, z+1/2'
  117  'y+1/2, -z, -x+1/2'
  118  '-y+1/2, z, x+1/2'
  119  'y+1/2, -x, z+1/2'
  120  '-y+1/2, x, -z+1/2'
  121  '-y+1/2, -z, x+1/2'
  122  'y+1/2, z, -x+1/2'
  123  '-y+1/2, -x, -z+1/2'
  124  'y+1/2, x, z+1/2'
  125  '-y+1/2, z, -x+1/2'
  126  'y+1/2, -z, x+1/2'
  127  '-y+1/2, x, z+1/2'
  128  'y+1/2, -x, -z+1/2'
  129  'z+1/2, x, y+1/2'
  130  '-z+1/2, -x, -y+1/2'
  131  'x+1/2, -z, y+1/2'
  132  '-x+1/2, z, -y+1/2'
  133  '-z+1/2, -x, y+1/2'
  134  'z+1/2, x, -y+1/2'
  135  '-x+1/2, z, y+1/2'
  136  'x+1/2, -z, -y+1/2'
  137  '-z+1/2, x, -y+1/2'
  138  'z+1/2, -x, y+1/2'
  139  '-x+1/2, -z, -y+1/2'
  140  'x+1/2, z, y+1/2'
  141  'z+1/2, -x, -y+1/2'
  142  '-z+1/2, x, y+1/2'
  143  'x+1/2, z, -y+1/2'
  144  '-x+1/2, -z, y+1/2'
  145  'x, y+1/2, z+1/2'
  146  '-x, -y+1/2, -z+1/2'
  147  '-z, y+1/2, x+1/2'
  148  'z, -y+1/2, -x+1/2'
  149  '-x, y+1/2, -z+1/2'
  150  'x, -y+1/2, z+1/2'
  151  'z, y+1/2, -x+1/2'
  152  '-z, -y+1/2, x+1/2'
  153  'x, -y+1/2, -z+1/2'
  154  '-x, y+1/2, z+1/2'
  155  '-z, -y+1/2, -x+1/2'
  156  'z, y+1/2, x+1/2'
  157  '-x, -y+1/2, z+1/2'
  158  'x, y+1/2, -z+1/2'
  159  'z, -y+1/2, x+1/2'
  160  '-z, y+1/2, -x+1/2'
  161  'y, z+1/2, x+1/2'
  162  '-y, -z+1/2, -x+1/2'
  163  'y, x+1/2, -z+1/2'
  164  '-y, -x+1/2, z+1/2'
  165  'y, -z+1/2, -x+1/2'
  166  '-y, z+1/2, x+1/2'
  167  'y, -x+1/2, z+1/2'
  168  '-y, x+1/2, -z+1/2'
  169  '-y, -z+1/2, x+1/2'
  170  'y, z+1/2, -x+1/2'
  171  '-y, -x+1/2, -z+1/2'
  172  'y, x+1/2, z+1/2'
  173  '-y, z+1/2, -x+1/2'
  174  'y, -z+1/2, x+1/2'
  175  '-y, x+1/2, z+1/2'
  176  'y, -x+1/2, -z+1/2'
  177  'z, x+1/2, y+1/2'
  178  '-z, -x+1/2, -y+1/2'
  179  'x, -z+1/2, y+1/2'
  180  '-x, z+1/2, -y+1/2'
  181  '-z, -x+1/2, y+1/2'
  182  'z, x+1/2, -y+1/2'
  183  '-x, z+1/2, y+1/2'
  184  'x, -z+1/2, -y+1/2'
  185  '-z, x+1/2, -y+1/2'
  186  'z, -x+1/2, y+1/2'
  187  '-x, -z+1/2, -y+1/2'
  188  'x, z+1/2, y+1/2'
  189  'z, -x+1/2, -y+1/2'
  190  '-z, x+1/2, y+1/2'
  191  'x, z+1/2, -y+1/2'
  192  '-x, -z+1/2, y+1/2'
loop_
 _atom_site_type_symbol
 _atom_site_label
 _atom_site_symmetry_multiplicity
 _atom_site_fract_x
 _atom_site_fract_y
 _atom_site_fract_z
 _atom_site_occupancy
  Si  Si1  4  0.000000  0.000000  0.500000  1
# generated using pymatgen
data_ID_84
_symmetry_space_group_name_H-M   P-6
_cell_length_a   5.59560763
_cell_length_b   5.59560763
_cell_length_c   5.15497555
_cell_angle_alpha   90.00000000
_cell_angle_beta   90.00000000
_cell_angle_gamma   120.00000000
_symmetry_Int_Tables_number   174
_chemical_formula_structural   Si
_cell_volume   139.782160671
_cell_formula_units_Z   8
loop_
 _symmetry_equiv_pos_site_id
 _symmetry_equiv_pos_as_xyz
  1  'x, y, z'
  2  '-x+y, -x, -z'
  3  '-y, x-y, z'
  4  'x, y, -z'
  5  '-x+y, -x, z'
  6  '-y, x-y, -z'
loop_
 _atom_site_type_symbol
 _atom_site_label
 _atom_site_symmetry_multiplicity
 _atom_site_fract_x
 _atom_site_fract_y
 _atom_site_fract_z
 _atom_site_occupancy
  Si  Si1  3  0.281650  0.061869  0.500000  1
  Si  Si2  2  0.666667  0.333333  0.781232  1
  Si  Si3  1  0.000000  0.000000  0.000000  1
  Si  Si4  1  0.333333  0.666667  0.000000  1
  Si  Si5  1  0.333333  0.666667  0.500000  1
# generated using pymatgen
data_ID_85
_symmetry_space_group_name_H-M   Pm-3m
_cell_length_a   2.53270775
_cell_length_b   2.53270775
_cell_length_c   2.53270775
_cell_angle_alpha   90.00000000
_cell_angle_beta   90.00000000
_cell_angle_gamma   90.00000000
_symmetry_Int_Tables_number   221
_chemical_formula_structural   Si
_cell_volume   16.2463287859
_cell_formula_units_Z   1
loop_
 _symmetry_equiv_pos_site_id
 _symmetry_equiv_pos_as_xyz
  1  'x, y, z'
  2  '-x, -y, -z'
  3  '-y, x, z'
  4  'y, -x, -z'
  5  '-x, -y, z'
  6  'x, y, -z'
  7  'y, -x, z'
  8  '-y, x, -z'
  9  'x, -y, -z'
  10  '-x, y, z'
  11  '-y, -x, -z'
  12  'y, x, z'
  13  '-x, y, -z'
  14  'x, -y, z'
  15  'y, x, -z'
  16  '-y, -x, z'
  17  'z, x, y'
  18  '-z, -x, -y'
  19  'z, -y, x'
  20  '-z, y, -x'
  21  'z, -x, -y'
  22  '-z, x, y'
  23  'z, y, -x'
  24  '-z, -y, x'
  25  '-z, x, -y'
  26  'z, -x, y'
  27  '-z, -y, -x'
  28  'z, y, x'
  29  '-z, -x, y'
  30  'z, x, -y'
  31  '-z, y, x'
  32  'z, -y, -x'
  33  'y, z, x'
  34  '-y, -z, -x'
  35  'x, z, -y'
  36  '-x, -z, y'
  37  '-y, z, -x'
  38  'y, -z, x'
  39  '-x, z, y'
  40  'x, -z, -y'
  41  '-y, -z, x'
  42  'y, z, -x'
  43  '-x, -z, -y'
  44  'x, z, y'
  45  'y, -z, -x'
  46  '-y, z, x'
  47  'x, -z, y'
  48  '-x, z, -y'
loop_
 _atom_site_type_symbol
 _atom_site_label
 _atom_site_symmetry_multiplicity
 _atom_site_fract_x
 _atom_site_fract_y
 _atom_site_fract_z
 _atom_site_occupancy
  Si  Si1  1  0.500000  0.500000  0.500000  1
# generated using pymatgen
data_ID_86
_symmetry_space_group_name_H-M   Pm-3m
_cell_length_a   2.53310502
_cell_length_b   2.53310502
_cell_length_c   2.53310502
_cell_angle_alpha   90.00000000
_cell_angle_beta   90.00000000
_cell_angle_gamma   90.00000000
_symmetry_Int_Tables_number   221
_chemical_formula_structural   Si
_cell_volume   16.2539749382
_cell_formula_units_Z   1
loop_
 _symmetry_equiv_pos_site_id
 _symmetry_equiv_pos_as_xyz
  1  'x, y, z'
  2  '-x, -y, -z'
  3  '-y, x, z'
  4  'y, -x, -z'
  5  '-x, -y, z'
  6  'x, y, -z'
  7  'y, -x, z'
  8  '-y, x, -z'
  9  'x, -y, -z'
  10  '-x, y, z'
  11  '-y, -x, -z'
  12  'y, x, z'
  13  '-x, y, -z'
  14  'x, -y, z'
  15  'y, x, -z'
  16  '-y, -x, z'
  17  'z, x, y'
  18  '-z, -x, -y'
  19  'z, -y, x'
  20  '-z, y, -x'
  21  'z, -x, -y'
  22  '-z, x, y'
  23  'z, y, -x'
  24  '-z, -y, x'
  25  '-z, x, -y'
  26  'z, -x, y'
  27  '-z, -y, -x'
  28  'z, y, x'
  29  '-z, -x, y'
  30  'z, x, -y'
  31  '-z, y, x'
  32  'z, -y, -x'
  33  'y, z, x'
  34  '-y, -z, -x'
  35  'x, z, -y'
  36  '-x, -z, y'
  37  '-y, z, -x'
  38  'y, -z, x'
  39  '-x, z, y'
  40  'x, -z, -y'
  41  '-y, -z, x'
  42  'y, z, -x'
  43  '-x, -z, -y'
  44  'x, z, y'
  45  'y, -z, -x'
  46  '-y, z, x'
  47  'x, -z, y'
  48  '-x, z, -y'
loop_
 _atom_site_type_symbol
 _atom_site_label
 _atom_site_symmetry_multiplicity
 _atom_site_fract_x
 _atom_site_fract_y
 _atom_site_fract_z
 _atom_site_occupancy
  Si  Si1  1  0.000000  0.000000  0.000000  1
# generated using pymatgen
data_ID_87
_symmetry_space_group_name_H-M   I4/mmm
_cell_length_a   3.32258243
_cell_length_b   3.32258243
_cell_length_c   2.62272384
_cell_angle_alpha   90.00000000
_cell_angle_beta   90.00000000
_cell_angle_gamma   90.00000000
_symmetry_Int_Tables_number   139
_chemical_formula_structural   Si
_cell_volume   28.9537014433
_cell_formula_units_Z   2
loop_
 _symmetry_equiv_pos_site_id
 _symmetry_equiv_pos_as_xyz
  1  'x, y, z'
  2  '-x, -y, -z'
  3  'y, -x, z'
  4  '-y, x, -z'
  5  '-x, -y, z'
  6  'x, y, -z'
  7  '-y, x, z'
  8  'y, -x, -z'
  9  '-x, y, -z'
  10  'x, -y, z'
  11  '-y, -x, -z'
  12  'y, x, z'
  13  'x, -y, -z'
  14  '-x, y, z'
  15  'y, x, -z'
  16  '-y, -x, z'
  17  'x+1/2, y+1/2, z+1/2'
  18  '-x+1/2, -y+1/2, -z+1/2'
  19  'y+1/2, -x+1/2, z+1/2'
  20  '-y+1/2, x+1/2, -z+1/2'
  21  '-x+1/2, -y+1/2, z+1/2'
  22  'x+1/2, y+1/2, -z+1/2'
  23  '-y+1/2, x+1/2, z+1/2'
  24  'y+1/2, -x+1/2, -z+1/2'
  25  '-x+1/2, y+1/2, -z+1/2'
  26  'x+1/2, -y+1/2, z+1/2'
  27  '-y+1/2, -x+1/2, -z+1/2'
  28  'y+1/2, x+1/2, z+1/2'
  29  'x+1/2, -y+1/2, -z+1/2'
  30  '-x+1/2, y+1/2, z+1/2'
  31  'y+1/2, x+1/2, -z+1/2'
  32  '-y+1/2, -x+1/2, z+1/2'
loop_
 _atom_site_type_symbol
 _atom_site_label
 _atom_site_symmetry_multiplicity
 _atom_site_fract_x
 _atom_site_fract_y
 _atom_site_fract_z
 _atom_site_occupancy
  Si  Si1  2  0.000000  0.000000  0.000000  1
# generated using pymatgen
data_ID_88
_symmetry_space_group_name_H-M   I4/mmm
_cell_length_a   6.87262675
_cell_length_b   6.87262675
_cell_length_c   6.44260368
_cell_angle_alpha   90.00000000
_cell_angle_beta   90.00000000
_cell_angle_gamma   90.00000000
_symmetry_Int_Tables_number   139
_chemical_formula_structural   Si
_cell_volume   304.303489652
_cell_formula_units_Z   16
loop_
 _symmetry_equiv_pos_site_id
 _symmetry_equiv_pos_as_xyz
  1  'x, y, z'
  2  '-x, -y, -z'
  3  'y, -x, z'
  4  '-y, x, -z'
  5  '-x, -y, z'
  6  'x, y, -z'
  7  '-y, x, z'
  8  'y, -x, -z'
  9  'x, -y, -z'
  10  '-x, y, z'
  11  'y, x, -z'
  12  '-y, -x, z'
  13  '-x, y, -z'
  14  'x, -y, z'
  15  '-y, -x, -z'
  16  'y, x, z'
  17  'x+1/2, y+1/2, z+1/2'
  18  '-x+1/2, -y+1/2, -z+1/2'
  19  'y+1/2, -x+1/2, z+1/2'
  20  '-y+1/2, x+1/2, -z+1/2'
  21  '-x+1/2, -y+1/2, z+1/2'
  22  'x+1/2, y+1/2, -z+1/2'
  23  '-y+1/2, x+1/2, z+1/2'
  24  'y+1/2, -x+1/2, -z+1/2'
  25  'x+1/2, -y+1/2, -z+1/2'
  26  '-x+1/2, y+1/2, z+1/2'
  27  'y+1/2, x+1/2, -z+1/2'
  28  '-y+1/2, -x+1/2, z+1/2'
  29  '-x+1/2, y+1/2, -z+1/2'
  30  'x+1/2, -y+1/2, z+1/2'
  31  '-y+1/2, -x+1/2, -z+1/2'
  32  'y+1/2, x+1/2, z+1/2'
loop_
 _atom_site_type_symbol
 _atom_site_label
 _atom_site_symmetry_multiplicity
 _atom_site_fract_x
 _atom_site_fract_y
 _atom_site_fract_z
 _atom_site_occupancy
  Si  Si1  16  0.000000  0.261892  0.315786  1
# generated using pymatgen
data_ID_89
_symmetry_space_group_name_H-M   I4/mmm
_cell_length_a   6.87977672
_cell_length_b   6.87977672
_cell_length_c   6.40989496
_cell_angle_alpha   90.00000000
_cell_angle_beta   90.00000000
_cell_angle_gamma   90.00000000
_symmetry_Int_Tables_number   139
_chemical_formula_structural   Si
_cell_volume   303.388838903
_cell_formula_units_Z   16
loop_
 _symmetry_equiv_pos_site_id
 _symmetry_equiv_pos_as_xyz
  1  'x, y, z'
  2  '-x, -y, -z'
  3  'y, -x, z'
  4  '-y, x, -z'
  5  '-x, -y, z'
  6  'x, y, -z'
  7  '-y, x, z'
  8  'y, -x, -z'
  9  'x, -y, -z'
  10  '-x, y, z'
  11  'y, x, -z'
  12  '-y, -x, z'
  13  '-x, y, -z'
  14  'x, -y, z'
  15  '-y, -x, -z'
  16  'y, x, z'
  17  'x+1/2, y+1/2, z+1/2'
  18  '-x+1/2, -y+1/2, -z+1/2'
  19  'y+1/2, -x+1/2, z+1/2'
  20  '-y+1/2, x+1/2, -z+1/2'
  21  '-x+1/2, -y+1/2, z+1/2'
  22  'x+1/2, y+1/2, -z+1/2'
  23  '-y+1/2, x+1/2, z+1/2'
  24  'y+1/2, -x+1/2, -z+1/2'
  25  'x+1/2, -y+1/2, -z+1/2'
  26  '-x+1/2, y+1/2, z+1/2'
  27  'y+1/2, x+1/2, -z+1/2'
  28  '-y+1/2, -x+1/2, z+1/2'
  29  '-x+1/2, y+1/2, -z+1/2'
  30  'x+1/2, -y+1/2, z+1/2'
  31  '-y+1/2, -x+1/2, -z+1/2'
  32  'y+1/2, x+1/2, z+1/2'
loop_
 _atom_site_type_symbol
 _atom_site_label
 _atom_site_symmetry_multiplicity
 _atom_site_fract_x
 _atom_site_fract_y
 _atom_site_fract_z
 _atom_site_occupancy
  Si  Si1  16  0.000000  0.261342  0.314645  1
# generated using pymatgen
data_ID_90
_symmetry_space_group_name_H-M   R32
_cell_length_a   21.72742318
_cell_length_b   21.72742318
_cell_length_c   27.77255716
_cell_angle_alpha   90.00000000
_cell_angle_beta   90.00000000
_cell_angle_gamma   120.00000000
_symmetry_Int_Tables_number   155
_chemical_formula_structural   Si
_cell_volume   11354.3675122
_cell_formula_units_Z   24
loop_
 _symmetry_equiv_pos_site_id
 _symmetry_equiv_pos_as_xyz
  1  'x, y, z'
  2  '-y, x-y, z'
  3  '-x+y, -x, z'
  4  'x-y, -y, -z'
  5  '-x, -x+y, -z'
  6  'y, x, -z'
  7  'x+2/3, y+1/3, z+1/3'
  8  '-y+2/3, x-y+1/3, z+1/3'
  9  '-x+y+2/3, -x+1/3, z+1/3'
  10  'x-y+2/3, -y+1/3, -z+1/3'
  11  '-x+2/3, -x+y+1/3, -z+1/3'
  12  'y+2/3, x+1/3, -z+1/3'
  13  'x+1/3, y+2/3, z+2/3'
  14  '-y+1/3, x-y+2/3, z+2/3'
  15  '-x+y+1/3, -x+2/3, z+2/3'
  16  'x-y+1/3, -y+2/3, -z+2/3'
  17  '-x+1/3, -x+y+2/3, -z+2/3'
  18  'y+1/3, x+2/3, -z+2/3'
loop_
 _atom_site_type_symbol
 _atom_site_label
 _atom_site_symmetry_multiplicity
 _atom_site_fract_x
 _atom_site_fract_y
 _atom_site_fract_z
 _atom_site_occupancy
  Si  Si1  18  0.063660  0.143865  0.982920  1
  Si  Si2  6  0.000000  0.000000  0.634304  1
# generated using pymatgen
data_ID_91
_symmetry_space_group_name_H-M   Pm-3m
_cell_length_a   2.53296776
_cell_length_b   2.53296776
_cell_length_c   2.53296776
_cell_angle_alpha   90.00000000
_cell_angle_beta   90.00000000
_cell_angle_gamma   90.00000000
_symmetry_Int_Tables_number   221
_chemical_formula_structural   Si
_cell_volume   16.2513328905
_cell_formula_units_Z   1
loop_
 _symmetry_equiv_pos_site_id
 _symmetry_equiv_pos_as_xyz
  1  'x, y, z'
  2  '-x, -y, -z'
  3  '-y, x, z'
  4  'y, -x, -z'
  5  '-x, -y, z'
  6  'x, y, -z'
  7  'y, -x, z'
  8  '-y, x, -z'
  9  'x, -y, -z'
  10  '-x, y, z'
  11  '-y, -x, -z'
  12  'y, x, z'
  13  '-x, y, -z'
  14  'x, -y, z'
  15  'y, x, -z'
  16  '-y, -x, z'
  17  'z, x, y'
  18  '-z, -x, -y'
  19  'z, -y, x'
  20  '-z, y, -x'
  21  'z, -x, -y'
  22  '-z, x, y'
  23  'z, y, -x'
  24  '-z, -y, x'
  25  '-z, x, -y'
  26  'z, -x, y'
  27  '-z, -y, -x'
  28  'z, y, x'
  29  '-z, -x, y'
  30  'z, x, -y'
  31  '-z, y, x'
  32  'z, -y, -x'
  33  'y, z, x'
  34  '-y, -z, -x'
  35  'x, z, -y'
  36  '-x, -z, y'
  37  '-y, z, -x'
  38  'y, -z, x'
  39  '-x, z, y'
  40  'x, -z, -y'
  41  '-y, -z, x'
  42  'y, z, -x'
  43  '-x, -z, -y'
  44  'x, z, y'
  45  'y, -z, -x'
  46  '-y, z, x'
  47  'x, -z, y'
  48  '-x, z, -y'
loop_
 _atom_site_type_symbol
 _atom_site_label
 _atom_site_symmetry_multiplicity
 _atom_site_fract_x
 _atom_site_fract_y
 _atom_site_fract_z
 _atom_site_occupancy
  Si  Si1  1  0.000000  0.000000  0.000000  1
# generated using pymatgen
data_ID_92
_symmetry_space_group_name_H-M   P6_3/mmc
_cell_length_a   3.63047435
_cell_length_b   3.63047435
_cell_length_c   5.68926978
_cell_angle_alpha   90.00000000
_cell_angle_beta   90.00000000
_cell_angle_gamma   120.00000000
_symmetry_Int_Tables_number   194
_chemical_formula_structural   Si
_cell_volume   64.9402425732
_cell_formula_units_Z   4
loop_
 _symmetry_equiv_pos_site_id
 _symmetry_equiv_pos_as_xyz
  1  'x, y, z'
  2  '-x, -y, -z'
  3  'y, -x+y, z+1/2'
  4  '-y, x-y, -z+1/2'
  5  '-x+y, -x, z'
  6  'x-y, x, -z'
  7  '-x, -y, z+1/2'
  8  'x, y, -z+1/2'
  9  '-y, x-y, z'
  10  'y, -x+y, -z'
  11  'x-y, x, z+1/2'
  12  '-x+y, -x, -z+1/2'
  13  '-x+y, y, -z+1/2'
  14  'x-y, -y, z+1/2'
  15  '-x, -x+y, -z'
  16  'x, x-y, z'
  17  '-y, -x, -z+1/2'
  18  'y, x, z+1/2'
  19  'x-y, -y, -z'
  20  '-x+y, y, z'
  21  'x, x-y, -z+1/2'
  22  '-x, -x+y, z+1/2'
  23  'y, x, -z'
  24  '-y, -x, z'
loop_
 _atom_site_type_symbol
 _atom_site_label
 _atom_site_symmetry_multiplicity
 _atom_site_fract_x
 _atom_site_fract_y
 _atom_site_fract_z
 _atom_site_occupancy
  Si  Si1  2  0.000000  0.000000  0.000000  1
  Si  Si2  2  0.333333  0.666667  0.250000  1
# generated using pymatgen
data_ID_93
_symmetry_space_group_name_H-M   F-43m
_cell_length_a   8.36633698
_cell_length_b   8.36633698
_cell_length_c   8.36633698
_cell_angle_alpha   90.00000000
_cell_angle_beta   90.00000000
_cell_angle_gamma   90.00000000
_symmetry_Int_Tables_number   216
_chemical_formula_structural   Si
_cell_volume   585.606730456
_cell_formula_units_Z   32
loop_
 _symmetry_equiv_pos_site_id
 _symmetry_equiv_pos_as_xyz
  1  'x, y, z'
  2  '-z, -y, x'
  3  '-x, y, -z'
  4  'z, -y, -x'
  5  'x, -y, -z'
  6  '-z, y, -x'
  7  '-x, -y, z'
  8  'z, y, x'
  9  'y, -z, -x'
  10  '-y, -x, z'
  11  'y, z, x'
  12  '-y, x, -z'
  13  '-y, z, -x'
  14  'y, x, z'
  15  '-y, -z, x'
  16  'y, -x, -z'
  17  '-z, x, -y'
  18  '-x, -z, y'
  19  'z, -x, -y'
  20  'x, z, y'
  21  'z, x, y'
  22  'x, -z, -y'
  23  '-z, -x, y'
  24  '-x, z, -y'
  25  'x+1/2, y+1/2, z'
  26  '-z+1/2, -y+1/2, x'
  27  '-x+1/2, y+1/2, -z'
  28  'z+1/2, -y+1/2, -x'
  29  'x+1/2, -y+1/2, -z'
  30  '-z+1/2, y+1/2, -x'
  31  '-x+1/2, -y+1/2, z'
  32  'z+1/2, y+1/2, x'
  33  'y+1/2, -z+1/2, -x'
  34  '-y+1/2, -x+1/2, z'
  35  'y+1/2, z+1/2, x'
  36  '-y+1/2, x+1/2, -z'
  37  '-y+1/2, z+1/2, -x'
  38  'y+1/2, x+1/2, z'
  39  '-y+1/2, -z+1/2, x'
  40  'y+1/2, -x+1/2, -z'
  41  '-z+1/2, x+1/2, -y'
  42  '-x+1/2, -z+1/2, y'
  43  'z+1/2, -x+1/2, -y'
  44  'x+1/2, z+1/2, y'
  45  'z+1/2, x+1/2, y'
  46  'x+1/2, -z+1/2, -y'
  47  '-z+1/2, -x+1/2, y'
  48  '-x+1/2, z+1/2, -y'
  49  'x+1/2, y, z+1/2'
  50  '-z+1/2, -y, x+1/2'
  51  '-x+1/2, y, -z+1/2'
  52  'z+1/2, -y, -x+1/2'
  53  'x+1/2, -y, -z+1/2'
  54  '-z+1/2, y, -x+1/2'
  55  '-x+1/2, -y, z+1/2'
  56  'z+1/2, y, x+1/2'
  57  'y+1/2, -z, -x+1/2'
  58  '-y+1/2, -x, z+1/2'
  59  'y+1/2, z, x+1/2'
  60  '-y+1/2, x, -z+1/2'
  61  '-y+1/2, z, -x+1/2'
  62  'y+1/2, x, z+1/2'
  63  '-y+1/2, -z, x+1/2'
  64  'y+1/2, -x, -z+1/2'
  65  '-z+1/2, x, -y+1/2'
  66  '-x+1/2, -z, y+1/2'
  67  'z+1/2, -x, -y+1/2'
  68  'x+1/2, z, y+1/2'
  69  'z+1/2, x, y+1/2'
  70  'x+1/2, -z, -y+1/2'
  71  '-z+1/2, -x, y+1/2'
  72  '-x+1/2, z, -y+1/2'
  73  'x, y+1/2, z+1/2'
  74  '-z, -y+1/2, x+1/2'
  75  '-x, y+1/2, -z+1/2'
  76  'z, -y+1/2, -x+1/2'
  77  'x, -y+1/2, -z+1/2'
  78  '-z, y+1/2, -x+1/2'
  79  '-x, -y+1/2, z+1/2'
  80  'z, y+1/2, x+1/2'
  81  'y, -z+1/2, -x+1/2'
  82  '-y, -x+1/2, z+1/2'
  83  'y, z+1/2, x+1/2'
  84  '-y, x+1/2, -z+1/2'
  85  '-y, z+1/2, -x+1/2'
  86  'y, x+1/2, z+1/2'
  87  '-y, -z+1/2, x+1/2'
  88  'y, -x+1/2, -z+1/2'
  89  '-z, x+1/2, -y+1/2'
  90  '-x, -z+1/2, y+1/2'
  91  'z, -x+1/2, -y+1/2'
  92  'x, z+1/2, y+1/2'
  93  'z, x+1/2, y+1/2'
  94  'x, -z+1/2, -y+1/2'
  95  '-z, -x+1/2, y+1/2'
  96  '-x, z+1/2, -y+1/2'
loop_
 _atom_site_type_symbol
 _atom_site_label
 _atom_site_symmetry_multiplicity
 _atom_site_fract_x
 _atom_site_fract_y
 _atom_site_fract_z
 _atom_site_occupancy
  Si  Si1  24  0.038185  0.250000  0.750000  1
  Si  Si2  4  0.000000  0.000000  0.500000  1
  Si  Si3  4  0.250000  0.250000  0.250000  1
# generated using pymatgen
data_ID_94
_symmetry_space_group_name_H-M   Pm-3m
_cell_length_a   2.53152402
_cell_length_b   2.53152402
_cell_length_c   2.53152402
_cell_angle_alpha   90.00000000
_cell_angle_beta   90.00000000
_cell_angle_gamma   90.00000000
_symmetry_Int_Tables_number   221
_chemical_formula_structural   Si
_cell_volume   16.2235598462
_cell_formula_units_Z   1
loop_
 _symmetry_equiv_pos_site_id
 _symmetry_equiv_pos_as_xyz
  1  'x, y, z'
  2  '-x, -y, -z'
  3  '-y, x, z'
  4  'y, -x, -z'
  5  '-x, -y, z'
  6  'x, y, -z'
  7  'y, -x, z'
  8  '-y, x, -z'
  9  'x, -y, -z'
  10  '-x, y, z'
  11  '-y, -x, -z'
  12  'y, x, z'
  13  '-x, y, -z'
  14  'x, -y, z'
  15  'y, x, -z'
  16  '-y, -x, z'
  17  'z, x, y'
  18  '-z, -x, -y'
  19  'z, -y, x'
  20  '-z, y, -x'
  21  'z, -x, -y'
  22  '-z, x, y'
  23  'z, y, -x'
  24  '-z, -y, x'
  25  '-z, x, -y'
  26  'z, -x, y'
  27  '-z, -y, -x'
  28  'z, y, x'
  29  '-z, -x, y'
  30  'z, x, -y'
  31  '-z, y, x'
  32  'z, -y, -x'
  33  'y, z, x'
  34  '-y, -z, -x'
  35  'x, z, -y'
  36  '-x, -z, y'
  37  '-y, z, -x'
  38  'y, -z, x'
  39  '-x, z, y'
  40  'x, -z, -y'
  41  '-y, -z, x'
  42  'y, z, -x'
  43  '-x, -z, -y'
  44  'x, z, y'
  45  'y, -z, -x'
  46  '-y, z, x'
  47  'x, -z, y'
  48  '-x, z, -y'
loop_
 _atom_site_type_symbol
 _atom_site_label
 _atom_site_symmetry_multiplicity
 _atom_site_fract_x
 _atom_site_fract_y
 _atom_site_fract_z
 _atom_site_occupancy
  Si  Si1  1  0.500000  0.500000  0.500000  1
# generated using pymatgen
data_ID_95
_symmetry_space_group_name_H-M   I4_132
_cell_length_a   6.42599666
_cell_length_b   6.42599666
_cell_length_c   6.42599666
_cell_angle_alpha   90.00000000
_cell_angle_beta   90.00000000
_cell_angle_gamma   90.00000000
_symmetry_Int_Tables_number   214
_chemical_formula_structural   Si
_cell_volume   265.351462632
_cell_formula_units_Z   8
loop_
 _symmetry_equiv_pos_site_id
 _symmetry_equiv_pos_as_xyz
  1  'x, y, z'
  2  'x+1/4, z+3/4, -y+3/4'
  3  'x, -y, -z+1/2'
  4  'x+3/4, -z+3/4, y+1/4'
  5  '-x, -y+1/2, z'
  6  '-x+3/4, -z+3/4, -y+3/4'
  7  '-x+1/2, y, -z'
  8  '-x+3/4, z+1/4, y+3/4'
  9  'y, z, x'
  10  'z+3/4, -y+3/4, x+1/4'
  11  '-y, -z+1/2, x'
  12  '-z+3/4, y+1/4, x+3/4'
  13  '-y+1/2, z, -x'
  14  '-z+3/4, -y+3/4, -x+3/4'
  15  'y, -z, -x+1/2'
  16  'z+1/4, y+3/4, -x+3/4'
  17  'z, x, y'
  18  '-y+3/4, x+1/4, z+3/4'
  19  '-z+1/2, x, -y'
  20  'y+1/4, x+3/4, -z+3/4'
  21  'z, -x, -y+1/2'
  22  '-y+3/4, -x+3/4, -z+3/4'
  23  '-z, -x+1/2, y'
  24  'y+3/4, -x+3/4, z+1/4'
  25  'x+1/2, y+1/2, z+1/2'
  26  'x+3/4, z+1/4, -y+1/4'
  27  'x+1/2, -y+1/2, -z'
  28  'x+1/4, -z+1/4, y+3/4'
  29  '-x+1/2, -y, z+1/2'
  30  '-x+1/4, -z+1/4, -y+1/4'
  31  '-x, y+1/2, -z+1/2'
  32  '-x+1/4, z+3/4, y+1/4'
  33  'y+1/2, z+1/2, x+1/2'
  34  'z+1/4, -y+1/4, x+3/4'
  35  '-y+1/2, -z, x+1/2'
  36  '-z+1/4, y+3/4, x+1/4'
  37  '-y, z+1/2, -x+1/2'
  38  '-z+1/4, -y+1/4, -x+1/4'
  39  'y+1/2, -z+1/2, -x'
  40  'z+3/4, y+1/4, -x+1/4'
  41  'z+1/2, x+1/2, y+1/2'
  42  '-y+1/4, x+3/4, z+1/4'
  43  '-z, x+1/2, -y+1/2'
  44  'y+3/4, x+1/4, -z+1/4'
  45  'z+1/2, -x+1/2, -y'
  46  '-y+1/4, -x+1/4, -z+1/4'
  47  '-z+1/2, -x, y+1/2'
  48  'y+1/4, -x+1/4, z+3/4'
loop_
 _atom_site_type_symbol
 _atom_site_label
 _atom_site_symmetry_multiplicity
 _atom_site_fract_x
 _atom_site_fract_y
 _atom_site_fract_z
 _atom_site_occupancy
  Si  Si1  8  0.125000  0.125000  0.125000  1
# generated using pymatgen
data_ID_96
_symmetry_space_group_name_H-M   P4/mmm
_cell_length_a   8.12023502
_cell_length_b   8.12023502
_cell_length_c   3.89290353
_cell_angle_alpha   90.00000000
_cell_angle_beta   90.00000000
_cell_angle_gamma   90.00000000
_symmetry_Int_Tables_number   123
_chemical_formula_structural   Si
_cell_volume   256.6911168
_cell_formula_units_Z   8
loop_
 _symmetry_equiv_pos_site_id
 _symmetry_equiv_pos_as_xyz
  1  'x, y, z'
  2  '-x, -y, -z'
  3  '-y, x, z'
  4  'y, -x, -z'
  5  '-x, -y, z'
  6  'x, y, -z'
  7  'y, -x, z'
  8  '-y, x, -z'
  9  'x, -y, -z'
  10  '-x, y, z'
  11  '-y, -x, -z'
  12  'y, x, z'
  13  '-x, y, -z'
  14  'x, -y, z'
  15  'y, x, -z'
  16  '-y, -x, z'
loop_
 _atom_site_type_symbol
 _atom_site_label
 _atom_site_symmetry_multiplicity
 _atom_site_fract_x
 _atom_site_fract_y
 _atom_site_fract_z
 _atom_site_occupancy
  Si  Si1  4  0.000000  0.209784  0.500000  1
  Si  Si2  4  0.000000  0.365279  0.000000  1
# generated using pymatgen
data_ID_97
_symmetry_space_group_name_H-M   P4/mmm
_cell_length_a   8.25402822
_cell_length_b   8.25402822
_cell_length_c   2.45160413
_cell_angle_alpha   90.00000000
_cell_angle_beta   90.00000000
_cell_angle_gamma   90.00000000
_symmetry_Int_Tables_number   123
_chemical_formula_structural   Si
_cell_volume   167.025293361
_cell_formula_units_Z   4
loop_
 _symmetry_equiv_pos_site_id
 _symmetry_equiv_pos_as_xyz
  1  'x, y, z'
  2  '-x, -y, -z'
  3  '-y, x, z'
  4  'y, -x, -z'
  5  '-x, -y, z'
  6  'x, y, -z'
  7  'y, -x, z'
  8  '-y, x, -z'
  9  'x, -y, -z'
  10  '-x, y, z'
  11  '-y, -x, -z'
  12  'y, x, z'
  13  '-x, y, -z'
  14  'x, -y, z'
  15  'y, x, -z'
  16  '-y, -x, z'
loop_
 _atom_site_type_symbol
 _atom_site_label
 _atom_site_symmetry_multiplicity
 _atom_site_fract_x
 _atom_site_fract_y
 _atom_site_fract_z
 _atom_site_occupancy
  Si  Si1  4  0.000000  0.204431  0.000000  1
# generated using pymatgen
data_ID_99
_symmetry_space_group_name_H-M   Ia3
_cell_length_a   6.65576575
_cell_length_b   6.65576575
_cell_length_c   6.65576575
_cell_angle_alpha   90.00000000
_cell_angle_beta   90.00000000
_cell_angle_gamma   90.00000000
_symmetry_Int_Tables_number   206
_chemical_formula_structural   Si
_cell_volume   294.845216202
_cell_formula_units_Z   16
loop_
 _symmetry_equiv_pos_site_id
 _symmetry_equiv_pos_as_xyz
  1  'x, y, z'
  2  '-x, -y, -z'
  3  'x+1/2, -y+1/2, -z'
  4  '-x, y, z+1/2'
  5  '-x+1/2, -y, z+1/2'
  6  'x, y+1/2, -z'
  7  '-x+1/2, y, -z'
  8  'x+1/2, -y, z'
  9  'y+1/2, -z+1/2, -x'
  10  '-y+1/2, z+1/2, x'
  11  '-y+1/2, z, -x'
  12  'y, -z+1/2, x+1/2'
  13  '-y+1/2, -z, x+1/2'
  14  'y, z+1/2, -x'
  15  'y, z, x'
  16  '-y+1/2, -z+1/2, -x+1/2'
  17  '-z+1/2, x, -y'
  18  'z, -x+1/2, y+1/2'
  19  'z, x, y'
  20  '-z+1/2, -x+1/2, -y+1/2'
  21  '-z+1/2, -x, y+1/2'
  22  'z, x+1/2, -y'
  23  'z+1/2, -x+1/2, -y'
  24  '-z, x, y+1/2'
  25  'x+1/2, y+1/2, z+1/2'
  26  '-x+1/2, -y+1/2, -z+1/2'
  27  'x, -y, -z+1/2'
  28  '-x+1/2, y+1/2, z'
  29  '-x, -y+1/2, z'
  30  'x+1/2, y, -z+1/2'
  31  '-x, y+1/2, -z+1/2'
  32  'x, -y+1/2, z+1/2'
  33  'y, -z, -x+1/2'
  34  '-y, z, x+1/2'
  35  '-y, z+1/2, -x+1/2'
  36  'y+1/2, -z, x'
  37  '-y, -z+1/2, x'
  38  'y+1/2, z, -x+1/2'
  39  'y+1/2, z+1/2, x+1/2'
  40  '-y, -z, -x'
  41  '-z, x+1/2, -y+1/2'
  42  'z+1/2, -x, y'
  43  'z+1/2, x+1/2, y+1/2'
  44  '-z, -x, -y'
  45  '-z, -x+1/2, y'
  46  'z+1/2, x, -y+1/2'
  47  'z, -x, -y+1/2'
  48  '-z+1/2, x+1/2, y'
loop_
 _atom_site_type_symbol
 _atom_site_label
 _atom_site_symmetry_multiplicity
 _atom_site_fract_x
 _atom_site_fract_y
 _atom_site_fract_z
 _atom_site_occupancy
  Si  Si1  16  0.101538  0.101538  0.101538  1
